2024_89_CemigReconfigurationCases/1_AlimsCemig/LFAD204/LFAD204AnualA.dss
clear
new circuit.alimLFAD204 bus1=BMT170239094,basekv=13.800000000,pu=1.040000000,r1=0,x1=0.0001

Redirect ..\0PermRes\NovasCurvasTxt\CurvasDeCargaDU.dss
Redirect ..\0PermRes\Condutores.dss
Redirect LFAD204SegmentosMT.dss
Redirect LFAD204ChavesMT.dss
Redirect LFAD204Reguladores.dss
Redirect LFAD204Transformadores.dss
Redirect LFAD204SegmentosBT.dss
Redirect LFAD204Ramais.dss
Redirect LFAD204CargaMT_Dez.dss
Redirect LFAD204CargaBT_Dez.dss
Redirect LFAD204CapacitorMT.dss

new energymeter.carga element=line.SMT_12731069,terminal=1

Set voltagebases=[13.800000000 0.24 0.22]
CalcVoltageBases
Set MaxIter = 150
Set MaxControlIter = 40

! Solve mode=daily,hour=0,number=24,stepsize=1h


! BusCoords LFAD204CoordMT.csv
ClearBusMarkers
! AddBusMarker Bus= ,code=12,color=Green,size=5 ! substation
! AddBusMarker bus= ,code=27,color=Green,size=3 ! NC switch in Green
! AddBusMarker bus= ,code=27,color=Yellow,size=3 ! Yellow circle = NO switch to be closed
! plot circuit quantity=power,dots=n,labels=n,subs=y,showloops=n,C1=Blue,C2=Blue,C3=Red,R2=0.95,R3=0.90