2024_89_CemigReconfigurationCases/1_AlimsCemig/LFAD204/LFAD204SegmentosMT.dss
new line.SMT_12141509 bus1=BMT171992707.2,bus2=BMT8735427B.2,Phases=1,Linecode=CAB202_3_1_1,Length=0.119845000,Units=km
new line.SMT_12141510 bus1=BMT8735427B.2,bus2=BMT8735431B.2,Phases=1,Linecode=CAB202_3_1_1,Length=0.305076000,Units=km
new line.SMT_12141511 bus1=BMT8735431B.2,bus2=BMT8735432B.2,Phases=1,Linecode=CAB202_3_1_1,Length=0.079527000,Units=km
new line.SMT_12141512 bus1=BMT8735432B.2,bus2=BMT171992710.2,Phases=1,Linecode=CAB202_3_1_1,Length=0.080936000,Units=km
new line.SMT_12141637 bus1=BMT171993146.1,bus2=BMT171993147.1,Phases=1,Linecode=CAB202_3_1_1,Length=0.121037000,Units=km
new line.SMT_12141638 bus1=BMT171993148.1,bus2=BMT4099414B.1,Phases=1,Linecode=CAB202_3_1_1,Length=0.120057000,Units=km
new line.SMT_12141639 bus1=BMT171993178.1,bus2=BMT171993179.1,Phases=1,Linecode=CAB202_3_1_1,Length=0.142418000,Units=km
new line.SMT_12141640 bus1=BMT171993179.1,bus2=BMT171993180.1,Phases=1,Linecode=CAB202_3_1_1,Length=0.018443000,Units=km
new line.SMT_12141647 bus1=BMT171993179.1,bus2=BMT8735552B.1,Phases=1,Linecode=CAB202_3_1_1,Length=0.085718000,Units=km
new line.SMT_12141648 bus1=BMT8735552B.1,bus2=BMT171993181.1,Phases=1,Linecode=CAB202_3_1_1,Length=0.125740000,Units=km
new line.SMT_12141649 bus1=BMT171993181.1,bus2=BMT8735559B.1,Phases=1,Linecode=CAB103_3_1_1,Length=0.050298000,Units=km
new line.SMT_12141650 bus1=BMT8735559B.1,bus2=BMT171993182.1,Phases=1,Linecode=CAB103_3_1_1,Length=0.080668000,Units=km
new line.SMT_12245636 bus1=BMT179683688.1,bus2=BMT179683693.1,Phases=1,Linecode=CAB202_3_1_1,Length=0.197676000,Units=km
new line.SMT_12280360 bus1=BMT177871375.1,bus2=BMT177871379.1,Phases=1,Linecode=CAB103_3_1_1,Length=0.059211000,Units=km
new line.SMT_12357990 bus1=BMT3305754B.2,bus2=BMT179827392.2,Phases=1,Linecode=CAB202_3_1_1,Length=0.267405000,Units=km
new line.SMT_12359373 bus1=BMT179827392.2,bus2=BMT179827393.2,Phases=1,Linecode=CAB103_3_1_1,Length=0.008546000,Units=km
new line.SMT_12359393 bus1=BMT179827392.2,bus2=BMT179827394.2,Phases=1,Linecode=CAB202_3_1_1,Length=0.166217000,Units=km
new line.SMT_12359400 bus1=BMT179827394.2,bus2=BMT179827395.2,Phases=1,Linecode=CAB202_3_1_1,Length=0.103635000,Units=km
new line.SMT_12359466 bus1=BMT4106001B.1.2.3,bus2=BMT8963326B.1.2.3,Phases=3,Linecode=CAB202_3_3_3,Length=0.088475000,Units=km
new line.SMT_12359467 bus1=BMT8963326B.1.2.3,bus2=BMT4106008B.1.2.3,Phases=3,Linecode=CAB202_3_3_3,Length=0.088408000,Units=km
new line.SMT_12359468 bus1=BMT171991991.1.2.3,bus2=BMT8963336B.1.2.3,Phases=3,Linecode=CAB103_3_3_3,Length=0.033248000,Units=km
new line.SMT_12359469 bus1=BMT8963336B.1.2.3,bus2=BMT171991992.1.2.3,Phases=3,Linecode=CAB103_3_3_3,Length=0.036076000,Units=km
new line.SMT_12359470 bus1=BMT1270882B.1.2.3,bus2=BMT8963337B.1.2.3,Phases=3,Linecode=CAB103_3_3_3,Length=0.031151000,Units=km
new line.SMT_12359471 bus1=BMT8963337B.1.2.3,bus2=BMT171991992.1.2.3,Phases=3,Linecode=CAB103_3_3_3,Length=0.029738000,Units=km
new line.SMT_12359554 bus1=BMT1270875B.1.2.3,bus2=BMT8963404B.1.2.3,Phases=3,Linecode=CAB103_3_3_3,Length=0.037491000,Units=km
new line.SMT_12359555 bus1=BMT8963404B.1.2.3,bus2=BMT1270882B.1.2.3,Phases=3,Linecode=CAB103_3_3_3,Length=0.029006000,Units=km
new line.SMT_12359558 bus1=BMT1270910B.1.2.3,bus2=BMT8963406B.1.2.3,Phases=3,Linecode=CAB103_3_3_3,Length=0.031897000,Units=km
new line.SMT_12359559 bus1=BMT8963406B.1.2.3,bus2=BMT171991994.1.2.3,Phases=3,Linecode=CAB103_3_3_3,Length=0.034720000,Units=km
new line.SMT_12359570 bus1=BMT171991998.1.2.3,bus2=BMT171992000.1.2.3,Phases=3,Linecode=CAB202_3_3_3,Length=0.024845000,Units=km
new line.SMT_12359572 bus1=BMT171992000.1,bus2=BMT171992001.1,Phases=1,Linecode=CAB202_3_1_1,Length=0.041057000,Units=km
new line.SMT_12359573 bus1=BMT171992004.1,bus2=BMT171992005.1,Phases=1,Linecode=CAB202_3_1_1,Length=0.044427000,Units=km
new line.SMT_12359585 bus1=BMT8963421B.1.2.3,bus2=BMT8963427B.1.2.3,Phases=3,Linecode=CAB202_3_3_3,Length=0.204204000,Units=km
new line.SMT_12359586 bus1=BMT8963427B.1.2.3,bus2=BMT8963428B.1.2.3,Phases=3,Linecode=CAB202_3_3_3,Length=0.062980000,Units=km
new line.SMT_12359587 bus1=BMT8963428B.1.2.3,bus2=BMT8963429B.1.2.3,Phases=3,Linecode=CAB202_3_3_3,Length=0.065959000,Units=km
new line.SMT_12359588 bus1=BMT8963429B.1.2.3,bus2=BMT171992003.1.2.3,Phases=3,Linecode=CAB202_3_3_3,Length=0.167004000,Units=km
new line.SMT_12359622 bus1=BMT171992000.1.2.3,bus2=BMT8963442B.1.2.3,Phases=3,Linecode=CAB202_3_3_3,Length=0.117500000,Units=km
new line.SMT_12359623 bus1=BMT8963442B.1.2.3,bus2=BMT8963443B.1.2.3,Phases=3,Linecode=CAB202_3_3_3,Length=0.102102000,Units=km
new line.SMT_12359624 bus1=BMT8963443B.1.2.3,bus2=BMT8963445B.1.2.3,Phases=3,Linecode=CAB202_3_3_3,Length=0.115334000,Units=km
new line.SMT_12359625 bus1=BMT8963445B.1.2.3,bus2=BMT8963447B.1.2.3,Phases=3,Linecode=CAB202_3_3_3,Length=0.103344000,Units=km
new line.SMT_12359626 bus1=BMT8963447B.1.2.3,bus2=BMT8963448B.1.2.3,Phases=3,Linecode=CAB202_3_3_3,Length=0.119060000,Units=km
new line.SMT_12359627 bus1=BMT8963448B.1.2.3,bus2=BMT8963450B.1.2.3,Phases=3,Linecode=CAB202_3_3_3,Length=0.105172000,Units=km
new line.SMT_12359628 bus1=BMT8963450B.1.2.3,bus2=BMT8963453B.1.2.3,Phases=3,Linecode=CAB202_3_3_3,Length=0.137234000,Units=km
new line.SMT_12359629 bus1=BMT8963453B.1.2.3,bus2=BMT171992002.1.2.3,Phases=3,Linecode=CAB202_3_3_3,Length=0.132032000,Units=km
new line.SMT_12111818 bus1=BMT171993328.2,bus2=BMT171993329.2,Phases=1,Linecode=CAB202_3_1_1,Length=0.024703000,Units=km
new line.SMT_12111819 bus1=BMT171993329.2,bus2=BMT4128954B.2,Phases=1,Linecode=CAB202_3_1_1,Length=0.129640000,Units=km
new line.SMT_12111824 bus1=BMT171993329.2,bus2=BMT171993331.2,Phases=1,Linecode=CAB202_3_1_1,Length=0.112023000,Units=km
new line.SMT_12217835 bus1=BMT171993578.2,bus2=BMT171993579.2,Phases=1,Linecode=CAB202_3_1_1,Length=0.225088000,Units=km
new line.SMT_12217836 bus1=BMT171993579.2,bus2=BMT171993580.2,Phases=1,Linecode=CAB202_3_1_1,Length=0.091063000,Units=km
new line.SMT_12217840 bus1=BMT171993579.2,bus2=BMT8818146B.2,Phases=1,Linecode=CAB202_3_1_1,Length=0.072571000,Units=km
new line.SMT_12217841 bus1=BMT8818146B.2,bus2=BMT171993581.2,Phases=1,Linecode=CAB202_3_1_1,Length=0.134481000,Units=km
new line.SMT_12287717 bus1=BMT171992436.1,bus2=BMT171992438.1,Phases=1,Linecode=CAB103_3_1_1,Length=0.020005000,Units=km
new line.SMT_12321942 bus1=BMT176490612.2,bus2=BMT176490614.2,Phases=1,Linecode=CAB202_3_1_1,Length=0.123347000,Units=km
new line.SMT_12322578 bus1=BMT171993330.2,bus2=BMT8923187B.2,Phases=1,Linecode=CAB202_3_1_1,Length=0.055956000,Units=km
new line.SMT_12322581 bus1=BMT8923187B.2,bus2=BMT8923188B.2,Phases=1,Linecode=CAB202_3_1_1,Length=0.087250000,Units=km
new line.SMT_12322593 bus1=BMT8923188B.2,bus2=BMT8923190B.2,Phases=1,Linecode=CAB202_3_1_1,Length=0.080964000,Units=km
new line.SMT_12322595 bus1=BMT8923190B.2,bus2=BMT171993333.2,Phases=1,Linecode=CAB202_3_1_1,Length=0.101997000,Units=km
new line.SMT_12323406 bus1=BMT177878178.2,bus2=BMT171993226.2,Phases=1,Linecode=CAB103_3_1_1,Length=0.017266000,Units=km
new line.SMT_12323407 bus1=BMT171993283.2,bus2=BMT171993284.2,Phases=1,Linecode=CAB202_3_1_1,Length=0.265063000,Units=km
new line.SMT_12323408 bus1=BMT171993284.2,bus2=BMT171993285.2,Phases=1,Linecode=CAB202_3_1_1,Length=0.046332000,Units=km
new line.SMT_12323409 bus1=BMT171993284.2,bus2=BMT171993286.2,Phases=1,Linecode=CAB103_3_1_1,Length=0.037006000,Units=km
new line.SMT_12393914 bus1=BMT171991787.1.2.3,bus2=BMT171991790.1.2.3,Phases=3,Linecode=CABA06_3_3_3,Length=0.039464000,Units=km
new line.SMT_12416933 bus1=BMT171446750.1.2.3,bus2=BMT9022886B.1.2.3,Phases=3,Linecode=CAB202_3_3_3,Length=0.078068000,Units=km
new line.SMT_12416934 bus1=BMT9022886B.1.2.3,bus2=BMT9022884B.1.2.3,Phases=3,Linecode=CAB202_3_3_3,Length=0.363839000,Units=km
new line.SMT_12416935 bus1=BMT9022884B.1.2.3,bus2=BMT171446751.1.2.3,Phases=3,Linecode=CAB202_3_3_3,Length=0.090439000,Units=km
new line.SMT_12452460 bus1=BMT171994274.1.2.3,bus2=BMT4015673B.1.2.3,Phases=3,Linecode=CABA06_3_3_3,Length=0.042959000,Units=km
new line.SMT_12452461 bus1=BMT4015673B.1.2.3,bus2=BMT4016751B.1.2.3,Phases=3,Linecode=CABA06_3_3_3,Length=0.022364000,Units=km
new line.SMT_12452462 bus1=BMT4016751B.1.2.3,bus2=BMT4015687B.1.2.3,Phases=3,Linecode=CABA06_3_3_3,Length=0.013344000,Units=km
new line.SMT_12452463 bus1=BMT4015687B.1.2.3,bus2=BMT9060484B.1.2.3,Phases=3,Linecode=CABA06_3_3_3,Length=0.025004000,Units=km
new line.SMT_12452464 bus1=BMT9060484B.1.2.3,bus2=BMT171994277.1.2.3,Phases=3,Linecode=CABA06_3_3_3,Length=0.019928000,Units=km
new line.SMT_12452465 bus1=BMT171994277.1.2.3,bus2=BMT9060486B.1.2.3,Phases=3,Linecode=CABA06_3_3_3,Length=0.006084000,Units=km
new line.SMT_12452466 bus1=BMT4016751B.1.2.3,bus2=BMT4015680B.1.2.3,Phases=3,Linecode=CABA06_3_3_3,Length=0.008248000,Units=km
new line.SMT_12452467 bus1=BMT4016751B.1.2.3,bus2=BMT4015708B.1.2.3,Phases=3,Linecode=CABA06_3_3_3,Length=0.027317000,Units=km
new line.SMT_12452468 bus1=BMT171994277.1.2.3,bus2=BMT9060488B.1.2.3,Phases=3,Linecode=CABA06_3_3_3,Length=0.005100000,Units=km
new line.SMT_12452469 bus1=BMT9060488B.1.2.3,bus2=BMT9060489B.1.2.3,Phases=3,Linecode=CABA06_3_3_3,Length=0.025183000,Units=km
new line.SMT_12452470 bus1=BMT9060489B.1.2.3,bus2=BMT9060490B.1.2.3,Phases=3,Linecode=CABA06_3_3_3,Length=0.036351000,Units=km
new line.SMT_12452471 bus1=BMT9060490B.1.2.3,bus2=BMT171994279.1.2.3,Phases=3,Linecode=CABA06_3_3_3,Length=0.025083000,Units=km
new line.SMT_12452477 bus1=BMT171994277.1.2.3,bus2=BMT9060493B.1.2.3,Phases=3,Linecode=CABA06_3_3_3,Length=0.022807000,Units=km
new line.SMT_12452478 bus1=BMT9060493B.1.2.3,bus2=BMT9060494B.1.2.3,Phases=3,Linecode=CABA06_3_3_3,Length=0.024742000,Units=km
new line.SMT_12452479 bus1=BMT9060494B.1.2.3,bus2=BMT9060497B.1.2.3,Phases=3,Linecode=CABA06_3_3_3,Length=0.023541000,Units=km
new line.SMT_12452480 bus1=BMT9060497B.1.2.3,bus2=BMT171994280.1.2.3,Phases=3,Linecode=CABA06_3_3_3,Length=0.025714000,Units=km
new line.SMT_12452481 bus1=BMT171994284.1.2.3,bus2=BMT9060500B.1.2.3,Phases=3,Linecode=CABA06_3_3_3,Length=0.024742000,Units=km
new line.SMT_12452482 bus1=BMT9060500B.1.2.3,bus2=BMT9060501B.1.2.3,Phases=3,Linecode=CABA06_3_3_3,Length=0.025714000,Units=km
new line.SMT_12452483 bus1=BMT9060501B.1.2.3,bus2=BMT9060503B.1.2.3,Phases=3,Linecode=CABA06_3_3_3,Length=0.025714000,Units=km
new line.SMT_12452484 bus1=BMT9060503B.1.2.3,bus2=BMT9060504B.1.2.3,Phases=3,Linecode=CABA06_3_3_3,Length=0.024519000,Units=km
new line.SMT_12452485 bus1=BMT9060504B.1.2.3,bus2=BMT171994285.1.2.3,Phases=3,Linecode=CABA06_3_3_3,Length=0.021590000,Units=km
new line.SMT_12452487 bus1=BMT9060486B.1.2.3,bus2=BMT9060555B.1.2.3,Phases=3,Linecode=CABA06_3_3_3,Length=0.032761000,Units=km
new line.SMT_12119329 bus1=BMT171993514.2,bus2=BMT171993516.2,Phases=1,Linecode=CAB202_3_1_1,Length=0.477907000,Units=km
new line.SMT_12119330 bus1=BMT171993516.2,bus2=BMT171993517.2,Phases=1,Linecode=CAB202_3_1_1,Length=0.100515000,Units=km
new line.SMT_12119331 bus1=BMT171993517.2,bus2=BMT171993519.2,Phases=1,Linecode=CAB202_3_1_1,Length=0.201351000,Units=km
new line.SMT_12119378 bus1=BMT171993516.2,bus2=BMT171993518.2,Phases=1,Linecode=CAB202_3_1_1,Length=0.159287000,Units=km
new line.SMT_12121784 bus1=BMT171991142.2,bus2=BMT171991144.2,Phases=1,Linecode=CAB103_3_1_1,Length=0.049200000,Units=km
new line.SMT_12152336 bus1=BMT171993513.2,bus2=BMT8747922B.2,Phases=1,Linecode=CAB202_3_1_1,Length=0.060838000,Units=km
new line.SMT_12152337 bus1=BMT8747922B.2,bus2=BMT8747923B.2,Phases=1,Linecode=CAB202_3_1_1,Length=0.083374000,Units=km
new line.SMT_12152338 bus1=BMT8747923B.2,bus2=BMT8747924B.2,Phases=1,Linecode=CAB202_3_1_1,Length=0.197153000,Units=km
new line.SMT_12152339 bus1=BMT8747924B.2,bus2=BMT8747925B.2,Phases=1,Linecode=CAB202_3_1_1,Length=0.093450000,Units=km
new line.SMT_12152340 bus1=BMT8747925B.2,bus2=BMT8747926B.2,Phases=1,Linecode=CAB202_3_1_1,Length=0.121519000,Units=km
new line.SMT_12152341 bus1=BMT8747926B.2,bus2=BMT8747927B.2,Phases=1,Linecode=CAB202_3_1_1,Length=0.106248000,Units=km
new line.SMT_12152342 bus1=BMT8747927B.2,bus2=BMT8747928B.2,Phases=1,Linecode=CAB202_3_1_1,Length=0.101333000,Units=km
new line.SMT_12152344 bus1=BMT8747928B.2,bus2=BMT171993514.2,Phases=1,Linecode=CAB202_3_1_1,Length=0.102232000,Units=km
new line.SMT_12153556 bus1=BMT177151268.2,bus2=BMT8749403B.2,Phases=1,Linecode=CAB202_3_1_1,Length=0.071356000,Units=km
new line.SMT_12153557 bus1=BMT8749403B.2,bus2=BMT4130333B.2,Phases=1,Linecode=CAB202_3_1_1,Length=0.284631000,Units=km
new line.SMT_12189128 bus1=BMT171993586.2,bus2=BMT171993588.2,Phases=1,Linecode=CAB103_3_1_1,Length=0.056736000,Units=km
new line.SMT_12227533 bus1=BMT171993633.2,bus2=BMT8828569B.2,Phases=1,Linecode=CAB202_3_1_1,Length=0.075465000,Units=km
new line.SMT_12227538 bus1=BMT8828569B.2,bus2=BMT171993635.2,Phases=1,Linecode=CAB202_3_1_1,Length=0.250241000,Units=km
new line.SMT_12261837 bus1=BMT177871375.1,bus2=BMT177871378.1,Phases=1,Linecode=CAB103_3_1_1,Length=0.052846000,Units=km
new line.SMT_12369382 bus1=BMT179577950.1.2.3,bus2=BMT179577953.1.2.3,Phases=3,Linecode=CAB103_3_3_3,Length=0.010632000,Units=km
new line.SMT_12369383 bus1=BMT179577953.1.2.3,bus2=BMT179577954.1.2.3,Phases=3,Linecode=CAB202_3_3_3,Length=0.146894000,Units=km
new line.SMT_12369415 bus1=BMT171993688.1,bus2=BMT171993690.1,Phases=1,Linecode=CAB103_3_1_1,Length=0.028605000,Units=km
new line.SMT_12439754 bus1=BMT171993701.3,bus2=BMT171993702.3,Phases=1,Linecode=CAB202_3_1_1,Length=0.373325000,Units=km
new line.SMT_12439777 bus1=BMT171991941.1,bus2=BMT4095466B.1,Phases=1,Linecode=CAB202_3_1_1,Length=0.090369000,Units=km
new line.SMT_12440720 bus1=BMT171993597.2,bus2=BMT171993600.2,Phases=1,Linecode=CAB202_3_1_1,Length=0.114953000,Units=km
new line.SMT_12440721 bus1=BMT171993600.2,bus2=BMT171993601.2,Phases=1,Linecode=CAB202_3_1_1,Length=0.062620000,Units=km
new line.SMT_12440725 bus1=BMT171993602.2,bus2=BMT9047149B.2,Phases=1,Linecode=CAB202_3_1_1,Length=0.196339000,Units=km
new line.SMT_12440729 bus1=BMT9047149B.2,bus2=BMT9047151B.2,Phases=1,Linecode=CAB202_3_1_1,Length=0.077038000,Units=km
new line.SMT_12440745 bus1=BMT9047151B.2,bus2=BMT9047153B.2,Phases=1,Linecode=CAB202_3_1_1,Length=0.084919000,Units=km
new line.SMT_12440746 bus1=BMT9047153B.2,bus2=BMT9047156B.2,Phases=1,Linecode=CAB202_3_1_1,Length=0.082578000,Units=km
new line.SMT_12440747 bus1=BMT9047156B.2,bus2=BMT9047157B.2,Phases=1,Linecode=CAB202_3_1_1,Length=0.089903000,Units=km
new line.SMT_12440750 bus1=BMT9047157B.2,bus2=BMT171993603.2,Phases=1,Linecode=CAB202_3_1_1,Length=0.083536000,Units=km
new line.SMT_12441911 bus1=BMT171991167.1,bus2=BMT171991168.1,Phases=1,Linecode=CAB202_3_1_1,Length=0.165698000,Units=km
new line.SMT_12441912 bus1=BMT171991168.1,bus2=BMT171991174.1,Phases=1,Linecode=CAB202_3_1_1,Length=0.053859000,Units=km
new line.SMT_12441915 bus1=BMT171991168.1,bus2=BMT171991175.1,Phases=1,Linecode=CAB103_3_1_1,Length=0.053608000,Units=km
new line.SMT_12441916 bus1=BMT171993256.2,bus2=BMT171993258.2,Phases=1,Linecode=CAB103_3_1_1,Length=0.063799000,Units=km
new line.SMT_12441920 bus1=BMT171993257.2,bus2=BMT171993259.2,Phases=1,Linecode=CAB103_3_1_1,Length=0.016282000,Units=km
new line.SMT_12441921 bus1=BMT171993259.2,bus2=BMT9048552B.2,Phases=1,Linecode=CAB202_3_1_1,Length=0.100036000,Units=km
new line.SMT_12441922 bus1=BMT9048552B.2,bus2=BMT171993260.2,Phases=1,Linecode=CAB202_3_1_1,Length=0.281199000,Units=km
new line.SMT_12441926 bus1=BMT177878186.2,bus2=BMT171993238.2,Phases=1,Linecode=CAB202_3_1_1,Length=0.082050000,Units=km
new line.SMT_12441927 bus1=BMT171993239.2,bus2=BMT171993240.2,Phases=1,Linecode=CAB202_3_1_1,Length=0.086327000,Units=km
new line.SMT_12442449 bus1=BMT171991995.1,bus2=BMT171991997.1,Phases=1,Linecode=CAB103_3_1_1,Length=0.063297000,Units=km
new line.SMT_12472672 bus1=BMT179093027.2,bus2=BMT9082483B.2,Phases=1,Linecode=CAB202_3_1_1,Length=0.062659000,Units=km
new line.SMT_12472673 bus1=BMT9082483B.2,bus2=BMT179093028.2,Phases=1,Linecode=CAB202_3_1_1,Length=0.187005000,Units=km
new line.SMT_12473004 bus1=BMT171991855.2,bus2=BMT171993297.2,Phases=1,Linecode=CAB202_3_1_1,Length=0.025084000,Units=km
new line.SMT_12473005 bus1=BMT171993307.2,bus2=BMT171993308.2,Phases=1,Linecode=CAB202_3_1_1,Length=0.117364000,Units=km
new line.SMT_12502436 bus1=BMT171993653.2,bus2=BMT9112196B.2,Phases=1,Linecode=CAB202_3_1_1,Length=0.378594000,Units=km
new line.SMT_12502437 bus1=BMT9112196B.2,bus2=BMT9112198B.2,Phases=1,Linecode=CAB202_3_1_1,Length=0.147322000,Units=km
new line.SMT_12502438 bus1=BMT9112198B.2,bus2=BMT171993654.2,Phases=1,Linecode=CAB202_3_1_1,Length=0.053375000,Units=km
new line.SMT_12540752 bus1=BMT176490520.2,bus2=BMT176490521.2,Phases=1,Linecode=CAB202_3_1_1,Length=0.095441000,Units=km
new line.SMT_12576540 bus1=BMT9065150B.1.2.3,bus2=BMT173191666.1.2.3,Phases=3,Linecode=CAB202_3_3_3,Length=0.078867000,Units=km
new line.SMT_12576541 bus1=BMT173191666.1.2.3,bus2=BMT9065151B.1.2.3,Phases=3,Linecode=CAB202_3_3_3,Length=0.058473000,Units=km
new line.SMT_12576545 bus1=BMT9065151B.1.2.3,bus2=BMT9185590B.1.2.3,Phases=3,Linecode=CAB202_3_3_3,Length=0.100096000,Units=km
new line.SMT_12576547 bus1=BMT9185590B.1.2.3,bus2=BMT9185591B.1.2.3,Phases=3,Linecode=CAB202_3_3_3,Length=0.110131000,Units=km
new line.SMT_12576549 bus1=BMT9185591B.1.2.3,bus2=BMT9185593B.1.2.3,Phases=3,Linecode=CAB202_3_3_3,Length=0.110131000,Units=km
new line.SMT_12576550 bus1=BMT9185593B.1.2.3,bus2=BMT9065152B.1.2.3,Phases=3,Linecode=CAB202_3_3_3,Length=0.102192000,Units=km
new line.SMT_12576551 bus1=BMT9065152B.1.2.3,bus2=BMT9185594B.1.2.3,Phases=3,Linecode=CAB202_3_3_3,Length=0.134639000,Units=km
new line.SMT_12576553 bus1=BMT9185594B.1.2.3,bus2=BMT9185595B.1.2.3,Phases=3,Linecode=CAB202_3_3_3,Length=0.124639000,Units=km
new line.SMT_12576554 bus1=BMT9185595B.1.2.3,bus2=BMT9065153B.1.2.3,Phases=3,Linecode=CAB202_3_3_3,Length=0.072212000,Units=km
new line.SMT_12576555 bus1=BMT9065153B.1.2.3,bus2=BMT9185596B.1.2.3,Phases=3,Linecode=CAB202_3_3_3,Length=0.074072000,Units=km
new line.SMT_12576556 bus1=BMT9185596B.1.2.3,bus2=BMT9065154B.1.2.3,Phases=3,Linecode=CAB202_3_3_3,Length=0.086159000,Units=km
new line.SMT_12576557 bus1=BMT9065154B.1.2.3,bus2=BMT9185597B.1.2.3,Phases=3,Linecode=CAB202_3_3_3,Length=0.089014000,Units=km
new line.SMT_12576558 bus1=BMT9185597B.1.2.3,bus2=BMT9065155B.1.2.3,Phases=3,Linecode=CAB202_3_3_3,Length=0.087678000,Units=km
new line.SMT_12576561 bus1=BMT9065157B.1.2.3,bus2=BMT9185598B.1.2.3,Phases=3,Linecode=CAB202_3_3_3,Length=0.086385000,Units=km
new line.SMT_12576562 bus1=BMT9185598B.1.2.3,bus2=BMT9185600B.1.2.3,Phases=3,Linecode=CAB202_3_3_3,Length=0.104156000,Units=km
new line.SMT_12576563 bus1=BMT9185600B.1.2.3,bus2=BMT9065158B.1.2.3,Phases=3,Linecode=CAB202_3_3_3,Length=0.099840000,Units=km
new line.SMT_12576712 bus1=BMT9065158B.1.2.3,bus2=BMT9185602B.1.2.3,Phases=3,Linecode=CAB202_3_3_3,Length=0.097760000,Units=km
new line.SMT_12576734 bus1=BMT9185602B.1.2.3,bus2=BMT9185603B.1.2.3,Phases=3,Linecode=CAB202_3_3_3,Length=0.092432000,Units=km
new line.SMT_12576735 bus1=BMT9185603B.1.2.3,bus2=BMT9065159B.1.2.3,Phases=3,Linecode=CAB202_3_3_3,Length=0.088541000,Units=km
new line.SMT_12576737 bus1=BMT9065159B.1.2.3,bus2=BMT9185609B.1.2.3,Phases=3,Linecode=CAB202_3_3_3,Length=0.073039000,Units=km
new line.SMT_12576739 bus1=BMT9185609B.1.2.3,bus2=BMT9065160B.1.2.3,Phases=3,Linecode=CAB202_3_3_3,Length=0.068077000,Units=km
new line.SMT_12576745 bus1=BMT9065160B.1.2.3,bus2=BMT9185604B.1.2.3,Phases=3,Linecode=CAB202_3_3_3,Length=0.089903000,Units=km
new line.SMT_12576746 bus1=BMT9185604B.1.2.3,bus2=BMT9065161B.1.2.3,Phases=3,Linecode=CAB202_3_3_3,Length=0.065202000,Units=km
new line.SMT_12576749 bus1=BMT9065162B.1.2.3,bus2=BMT9185619B.1.2.3,Phases=3,Linecode=CAB202_3_3_3,Length=0.101623000,Units=km
new line.SMT_12576754 bus1=BMT9185619B.1.2.3,bus2=BMT9065163B.1.2.3,Phases=3,Linecode=CAB202_3_3_3,Length=0.116920000,Units=km
new line.SMT_12576788 bus1=BMT9065163B.1.2.3,bus2=BMT171991855.1.2.3,Phases=3,Linecode=CAB202_3_3_3,Length=0.222070000,Units=km
new line.SMT_12576814 bus1=BMT171991855.1.2.3,bus2=BMT171993298.1.2.3,Phases=3,Linecode=CAB202_3_3_3,Length=0.122338000,Units=km
new line.SMT_12576831 bus1=BMT171993298.1.2.3,bus2=BMT9185652B.1.2.3,Phases=3,Linecode=CAB202_3_3_3,Length=0.125119000,Units=km
new line.SMT_12576844 bus1=BMT9185652B.1.2.3,bus2=BMT9065165B.1.2.3,Phases=3,Linecode=CAB202_3_3_3,Length=0.081315000,Units=km
new line.SMT_12576845 bus1=BMT9065165B.1.2.3,bus2=BMT9185653B.1.2.3,Phases=3,Linecode=CAB202_3_3_3,Length=0.061043000,Units=km
new line.SMT_12576846 bus1=BMT9185653B.1.2.3,bus2=BMT9185654B.1.2.3,Phases=3,Linecode=CAB202_3_3_3,Length=0.046408000,Units=km
new line.SMT_12576850 bus1=BMT9185654B.1.2.3,bus2=BMT9065166B.1.2.3,Phases=3,Linecode=CAB202_3_3_3,Length=0.040811000,Units=km
new line.SMT_12576859 bus1=BMT9065166B.1.2.3,bus2=BMT9185656B.1.2.3,Phases=3,Linecode=CAB202_3_3_3,Length=0.171739000,Units=km
new line.SMT_12576860 bus1=BMT9185656B.1.2.3,bus2=BMT171993301.1.2.3,Phases=3,Linecode=CAB202_3_3_3,Length=0.106271000,Units=km
new line.SMT_12576869 bus1=BMT171993301.1.2.3,bus2=BMT9065167B.1.2.3,Phases=3,Linecode=CAB202_3_3_3,Length=0.165679000,Units=km
new line.SMT_12614058 bus1=BMT171993268.3,bus2=BMT171993269.3,Phases=1,Linecode=CAB202_3_1_1,Length=0.097755000,Units=km
new line.SMT_12614059 bus1=BMT171993269.3,bus2=BMT171993270.3,Phases=1,Linecode=CAB202_3_1_1,Length=0.023199000,Units=km
new line.SMT_12452488 bus1=BMT9060555B.1.2.3,bus2=BMT9060557B.1.2.3,Phases=3,Linecode=CABA06_3_3_3,Length=0.032761000,Units=km
new line.SMT_12452489 bus1=BMT9060557B.1.2.3,bus2=BMT171994278.1.2.3,Phases=3,Linecode=CABA06_3_3_3,Length=0.037662000,Units=km
new line.SMT_12452490 bus1=BMT171994278.1.2.3,bus2=BMT171994281.1.2.3,Phases=3,Linecode=CABA06_3_3_3,Length=0.025322000,Units=km
new line.SMT_12452501 bus1=BMT171994278.1.2.3,bus2=BMT9060610B.1.2.3,Phases=3,Linecode=CABA06_3_3_3,Length=0.029618000,Units=km
new line.SMT_12452502 bus1=BMT9060610B.1.2.3,bus2=BMT9060613B.1.2.3,Phases=3,Linecode=CABA06_3_3_3,Length=0.029432000,Units=km
new line.SMT_12452503 bus1=BMT9060613B.1.2.3,bus2=BMT9060617B.1.2.3,Phases=3,Linecode=CABA06_3_3_3,Length=0.016281000,Units=km
new line.SMT_12452504 bus1=BMT9060617B.1.2.3,bus2=BMT9060655B.1.2.3,Phases=3,Linecode=CABA06_3_3_3,Length=0.025183000,Units=km
new line.SMT_12452505 bus1=BMT9060655B.1.2.3,bus2=BMT9060656B.1.2.3,Phases=3,Linecode=CABA06_3_3_3,Length=0.025322000,Units=km
new line.SMT_12452506 bus1=BMT9060656B.1.2.3,bus2=BMT171994282.1.2.3,Phases=3,Linecode=CABA06_3_3_3,Length=0.031261000,Units=km
new line.SMT_12452507 bus1=BMT171994282.1.2.3,bus2=BMT9060708B.1.2.3,Phases=3,Linecode=CABA06_3_3_3,Length=0.033141000,Units=km
new line.SMT_12452508 bus1=BMT9060708B.1.2.3,bus2=BMT9060724B.1.2.3,Phases=3,Linecode=CABA06_3_3_3,Length=0.028288000,Units=km
new line.SMT_12452509 bus1=BMT9060724B.1.2.3,bus2=BMT9060721B.1.2.3,Phases=3,Linecode=CABA06_3_3_3,Length=0.029279000,Units=km
new line.SMT_12452510 bus1=BMT9060721B.1.2.3,bus2=BMT9060720B.1.2.3,Phases=3,Linecode=CABA06_3_3_3,Length=0.030418000,Units=km
new line.SMT_12452511 bus1=BMT9060720B.1.2.3,bus2=BMT9060718B.1.2.3,Phases=3,Linecode=CABA06_3_3_3,Length=0.034370000,Units=km
new line.SMT_12452512 bus1=BMT9060718B.1.2.3,bus2=BMT9060715B.1.2.3,Phases=3,Linecode=CABA06_3_3_3,Length=0.030270000,Units=km
new line.SMT_12452513 bus1=BMT9060715B.1.2.3,bus2=BMT9060651B.1.2.3,Phases=3,Linecode=CABA06_3_3_3,Length=0.034370000,Units=km
new line.SMT_12452514 bus1=BMT9060651B.1.2.3,bus2=BMT171994283.1.2.3,Phases=3,Linecode=CABA06_3_3_3,Length=0.037207000,Units=km
new line.SMT_12452558 bus1=BMT171994285.1.2.3,bus2=BMT9060506B.1.2.3,Phases=3,Linecode=CABA06_3_3_3,Length=0.027897000,Units=km
new line.SMT_12452559 bus1=BMT9060506B.1.2.3,bus2=BMT9060507B.1.2.3,Phases=3,Linecode=CABA06_3_3_3,Length=0.031785000,Units=km
new line.SMT_12452560 bus1=BMT9060507B.1.2.3,bus2=BMT9060509B.1.2.3,Phases=3,Linecode=CABA06_3_3_3,Length=0.021590000,Units=km
new line.SMT_12452561 bus1=BMT9060509B.1.2.3,bus2=BMT9060510B.1.2.3,Phases=3,Linecode=CABA06_3_3_3,Length=0.007282000,Units=km
new line.SMT_12452562 bus1=BMT9060510B.1.2.3,bus2=BMT9060511B.1.2.3,Phases=3,Linecode=CABA06_3_3_3,Length=0.031325000,Units=km
new line.SMT_12452563 bus1=BMT9060511B.1.2.3,bus2=BMT9060512B.1.2.3,Phases=3,Linecode=CABA06_3_3_3,Length=0.020619000,Units=km
new line.SMT_12452564 bus1=BMT9060512B.1.2.3,bus2=BMT9060514B.1.2.3,Phases=3,Linecode=CABA06_3_3_3,Length=0.039057000,Units=km
new line.SMT_12452565 bus1=BMT9060514B.1.2.3,bus2=BMT7509410B.1.2.3,Phases=3,Linecode=CABA06_3_3_3,Length=0.041767000,Units=km
new line.SMT_12452566 bus1=BMT7509410B.1.2.3,bus2=BMT4612976B.1.2.3,Phases=3,Linecode=CABA06_3_3_3,Length=0.026253000,Units=km
new line.SMT_12452576 bus1=BMT7509410B.1.2.3,bus2=BMT7509494B.1.2.3,Phases=3,Linecode=CABA06_3_3_3,Length=0.028849000,Units=km
...
