2024_89_CemigReconfigurationCases/1_AlimsCemig/LFAD204/LFAD204ChavesMT.dss
new line.CTR138667 bus1=BMT122859405.1.2.3,bus2=BMT171445628.1.2.3,Phases=3,LineCode=tieSwitch,Length=0.001,Units=km,switch=T !numEQ NUMEQ:54245  - Data de conexão anterior06/2011.
new line.CTR138898 bus1=BMT171991321.2,bus2=BMT176490518.2,Phases=1,LineCode=tieSwitch1,Length=0.001,Units=km,switch=T !numEQ NUMEQ:43349  - Data de conexão anterior06/2011.
new line.CTR138905 bus1=BMT171991303.2,bus2=BMT177094367.2,Phases=1,LineCode=tieSwitch1,Length=0.001,Units=km,switch=T !numEQ NUMEQ:43346  - Data de conexão anterior06/2011.
new line.CTR138912 bus1=BMT176490496.2,bus2=BMT171991276.2,Phases=1,LineCode=tieSwitch1,Length=0.001,Units=km,switch=T !numEQ NUMEQ:167756  - Data de conexão anterior06/2011.
open line.CTR138912 term=1
new line.CTR138919 bus1=BMT171991950.1.2.3,bus2=BMT171991951.1.2.3,Phases=3,LineCode=tieSwitch,Length=0.001,Units=km,switch=T !numEQ NUMEQ:55454  - Data de conexão anterior06/2011.
new line.CTR139353 bus1=BMT171993352.2,bus2=BMT177151268.2,Phases=1,LineCode=tieSwitch1,Length=0.001,Units=km,switch=T !numEQ NUMEQ:373659  - Data de conexão anterior06/2011.
new line.CTR139500 bus1=BMT171991389.2,bus2=BMT176490654.2,Phases=1,LineCode=tieSwitch1,Length=0.001,Units=km,switch=T !numEQ NUMEQ:43342  - Data de conexão anterior06/2011.
new line.CTR139507 bus1=BMT171992510.2,bus2=BMT171992682.2,Phases=1,LineCode=tieSwitch1,Length=0.001,Units=km,switch=T !numEQ NUMEQ:226772  - Data de conexão anterior06/2011.
new line.CTR139521 bus1=BMT171992918.3,bus2=BMT171992948.3,Phases=1,LineCode=tieSwitch1,Length=0.001,Units=km,switch=T !numEQ NUMEQ:262936  - Data de conexão anterior06/2011.
new line.CTR139528 bus1=BMT171992938.3,bus2=BMT171992942.3,Phases=1,LineCode=tieSwitch1,Length=0.001,Units=km,switch=T !numEQ NUMEQ:43367  - Data de conexão anterior06/2011.
new line.CTR139535 bus1=BMT171993150.1,bus2=BMT171993196.1,Phases=1,LineCode=tieSwitch1,Length=0.001,Units=km,switch=T !numEQ NUMEQ:55775  - Data de conexão anterior06/2011.
new line.CTR139752 bus1=BMT171991218.2,bus2=BMT179093084.2,Phases=1,LineCode=tieSwitch1,Length=0.001,Units=km,switch=T !numEQ NUMEQ:258039  - Data de conexão anterior06/2011.
new line.CTR139759 bus1=BMT171991227.2,bus2=BMT179185905.2,Phases=1,LineCode=tieSwitch1,Length=0.001,Units=km,switch=T !numEQ NUMEQ:54850  - Data de conexão anterior06/2011.
new line.CTR139766 bus1=BMT171993225.1,bus2=BMT171993279.1,Phases=1,LineCode=tieSwitch1,Length=0.001,Units=km,switch=T !numEQ NUMEQ:43352  - Data de conexão anterior06/2011.
new line.CTR139780 bus1=BMT171992037.1.2.3,bus2=BMT171992038.1.2.3,Phases=3,LineCode=tieSwitch,Length=0.001,Units=km,switch=T !numEQ NUMEQ:55462  - Data de conexão anterior06/2011.
new line.CTR139794 bus1=BMT171992906.3,bus2=BMT171993007.3,Phases=1,LineCode=tieSwitch1,Length=0.001,Units=km,switch=T !numEQ NUMEQ:55461  - Data de conexão anterior06/2011.
new line.CTR139801 bus1=BMT171992113.1.2.3,bus2=BMT171992446.1.2.3,Phases=3,LineCode=tieSwitch,Length=0.001,Units=km,switch=T !numEQ NUMEQ:55095  - Data de conexão anterior06/2011.
new line.CTR154235 bus1=BMT171992300.3,bus2=BMT178409779.3,Phases=1,LineCode=tieSwitch1,Length=0.001,Units=km,switch=T !numEQ NUMEQ:117009  - Data de conexão anterior06/2011.
new line.CTR18393 bus1=BMT171992018.1,bus2=BMT171992023.1,Phases=1,LineCode=tieSwitch1,Length=0.001,Units=km,switch=T !numEQ NUMEQ:143872  - Data de conexão anterior06/2011.
new line.CTR202528 bus1=BMT171992492.3,bus2=BMT171992695.3,Phases=1,LineCode=tieSwitch1,Length=0.001,Units=km,switch=T !numEQ NUMEQ:138669  - Data de conexão anterior06/2011.
new line.CTR204761 bus1=BMT171991123.1.2.3,bus2=BMT171991691.1.2.3,Phases=3,LineCode=tieSwitch,Length=0.001,Units=km,switch=T !numEQ NUMEQ:189211  - Data de conexão anterior06/2011.
new line.CTR226776 bus1=BMT171991595.1,bus2=BMT171991600.1,Phases=1,LineCode=tieSwitch1,Length=0.001,Units=km,switch=T !numEQ NUMEQ:42145  - Data de conexão anterior06/2011.
new line.CTR227301 bus1=BMT171991124.1,bus2=BMT171991687.1,Phases=1,LineCode=tieSwitch1,Length=0.001,Units=km,switch=T !numEQ NUMEQ:43662  - Data de conexão anterior06/2011.
new line.CTR227329 bus1=BMT171991131.1.2.3,bus2=BMT177329502.1.2.3,Phases=3,LineCode=tieSwitch,Length=0.001,Units=km,switch=T !numEQ NUMEQ:167747  - Data de conexão anterior06/2011.
new line.CTR227406 bus1=BMT171992135.3,bus2=BMT171992350.3,Phases=1,LineCode=tieSwitch1,Length=0.001,Units=km,switch=T !numEQ NUMEQ:55717  - Data de conexão anterior06/2011.
new line.CTR227441 bus1=BMT171991260.2,bus2=BMT176490578.2,Phases=1,LineCode=tieSwitch1,Length=0.001,Units=km,switch=T !numEQ NUMEQ:316014  - Data de conexão anterior06/2011.
new line.CTR227469 bus1=BMT171991316.2,bus2=BMT176490510.2,Phases=1,LineCode=tieSwitch1,Length=0.001,Units=km,switch=T !numEQ NUMEQ:262705  - Data de conexão anterior06/2011.
new line.CTR227483 bus1=BMT171991974.3,bus2=BMT171993092.3,Phases=1,LineCode=tieSwitch1,Length=0.001,Units=km,switch=T !numEQ NUMEQ:43360  - Data de conexão anterior06/2011.
new line.CTR227490 bus1=BMT171992123.1,bus2=BMT171992396.1,Phases=1,LineCode=tieSwitch1,Length=0.001,Units=km,switch=T !numEQ NUMEQ:168067  - Data de conexão anterior06/2011.
new line.CTR227504 bus1=BMT171993374.2,bus2=BMT171993401.2,Phases=1,LineCode=tieSwitch1,Length=0.001,Units=km,switch=T !numEQ NUMEQ:43380  - Data de conexão anterior06/2011.
new line.CTR227511 bus1=BMT122865544.3,bus2=BMT122865600.3,Phases=1,LineCode=tieSwitch1,Length=0.001,Units=km,switch=T !numEQ NUMEQ:10645  - Data de conexão anterior06/2011.
new line.CTR227539 bus1=BMT122859433.1,bus2=BMT171447606.1,Phases=1,LineCode=tieSwitch1,Length=0.001,Units=km,switch=T !numEQ NUMEQ:270195  - Data de conexão anterior06/2011.
new line.CTR227581 bus1=BMT171991149.1,bus2=BMT171991158.1,Phases=1,LineCode=tieSwitch1,Length=0.001,Units=km,switch=T !numEQ NUMEQ:167748  - Data de conexão anterior06/2011.
new line.CTR227595 bus1=BMT171992125.3,bus2=BMT171992386.3,Phases=1,LineCode=tieSwitch1,Length=0.001,Units=km,switch=T !numEQ NUMEQ:54734  - Data de conexão anterior06/2011.
new line.CTR227700 bus1=BMT171991108.1,bus2=BMT179683684.1,Phases=1,LineCode=tieSwitch1,Length=0.001,Units=km,switch=T !numEQ NUMEQ:211003  - Data de conexão anterior06/2011.
new line.CTR227707 bus1=BMT171991393.2,bus2=BMT176490643.2,Phases=1,LineCode=tieSwitch1,Length=0.001,Units=km,switch=T !numEQ NUMEQ:37684  - Data de conexão anterior06/2011.
new line.CTR227714 bus1=BMT171991258.2,bus2=BMT176490664.2,Phases=1,LineCode=tieSwitch1,Length=0.001,Units=km,switch=T !numEQ NUMEQ:43341  - Data de conexão anterior06/2011.
new line.CTR227805 bus1=BMT171991960.1,bus2=BMT171993146.1,Phases=1,LineCode=tieSwitch1,Length=0.001,Units=km,switch=T !numEQ NUMEQ:188553  - Data de conexão anterior06/2011.
new line.CTR227833 bus1=BMT171992108.3,bus2=BMT171992449.3,Phases=1,LineCode=tieSwitch1,Length=0.001,Units=km,switch=T !numEQ NUMEQ:54339  - Data de conexão anterior06/2011.
new line.CTR227840 bus1=BMT171992128.1,bus2=BMT171992364.1,Phases=1,LineCode=tieSwitch1,Length=0.001,Units=km,switch=T !numEQ NUMEQ:55716  - Data de conexão anterior06/2011.
new line.CTR227847 bus1=BMT171992129.3,bus2=BMT171992360.3,Phases=1,LineCode=tieSwitch1,Length=0.001,Units=km,switch=T !numEQ NUMEQ:54429  - Data de conexão anterior06/2011.
new line.CTR227868 bus1=BMT171992913.3,bus2=BMT171992974.3,Phases=1,LineCode=tieSwitch1,Length=0.001,Units=km,switch=T !numEQ NUMEQ:233227  - Data de conexão anterior06/2011.
new line.CTR227917 bus1=BMT179185916.2,bus2=BMT171991244.2,Phases=1,LineCode=tieSwitch1,Length=0.001,Units=km,switch=T !numEQ NUMEQ:43338  - Data de conexão anterior06/2011.
new line.CTR227924 bus1=BMT171991985.3,bus2=BMT171992900.3,Phases=1,LineCode=tieSwitch1,Length=0.001,Units=km,switch=T !numEQ NUMEQ:55460  - Data de conexão anterior06/2011.
new line.CTR227931 bus1=BMT171992143.1,bus2=BMT171992333.1,Phases=1,LineCode=tieSwitch1,Length=0.001,Units=km,switch=T !numEQ NUMEQ:372389  - Data de conexão anterior06/2011.
new line.CTR227938 bus1=BMT171991980.1.2.3,bus2=BMT171991988.1.2.3,Phases=3,LineCode=tieSwitch,Length=0.001,Units=km,switch=T !numEQ NUMEQ:248586  - Data de conexão anterior06/2011.
new line.CTR228050 bus1=BMT171993360.2,bus2=BMT171993405.2,Phases=1,LineCode=tieSwitch1,Length=0.001,Units=km,switch=T !numEQ NUMEQ:43325  - Data de conexão anterior06/2011.
new line.CTR228134 bus1=BMT171993363.2,bus2=BMT171993364.2,Phases=1,LineCode=tieSwitch1,Length=0.001,Units=km,switch=T !numEQ NUMEQ:171660  - Data de conexão anterior06/2011.
new line.CTR139913 bus1=BMT171991122.2,bus2=BMT171991132.2,Phases=1,LineCode=tieSwitch1,Length=0.001,Units=km,switch=T !numEQ NUMEQ:167746  - Data de conexão anterior06/2011.
new line.CTR140018 bus1=BMT171992562.1,bus2=BMT171992565.1,Phases=1,LineCode=tieSwitch1,Length=0.001,Units=km,switch=T !numEQ NUMEQ:43372  - Data de conexão anterior06/2011.
new line.CTR140130 bus1=BMT175125785.1.2.3,bus2=BMT122842444.1.2.3,Phases=3,LineCode=tieSwitch,Length=0.001,Units=km,switch=T !numEQ NUMEQ:54896  - Data de conexão anterior06/2011.
open line.CTR140130 term=1
new line.CTR140137 bus1=BMT171991259.2,bus2=BMT176490660.2,Phases=1,LineCode=tieSwitch1,Length=0.001,Units=km,switch=T !numEQ NUMEQ:43340  - Data de conexão anterior06/2011.
new line.CTR140144 bus1=BMT171991965.3,bus2=BMT171993115.3,Phases=1,LineCode=tieSwitch1,Length=0.001,Units=km,switch=T !numEQ NUMEQ:55457  - Data de conexão anterior06/2011.
new line.CTR140151 bus1=BMT171992410.1,bus2=BMT171992439.1,Phases=1,LineCode=tieSwitch1,Length=0.001,Units=km,switch=T !numEQ NUMEQ:43383  - Data de conexão anterior06/2011.
new line.CTR140417 bus1=BMT171992799.1,bus2=BMT171992850.1,Phases=1,LineCode=tieSwitch1,Length=0.001,Units=km,switch=T !numEQ NUMEQ:43375  - Data de conexão anterior06/2011.
new line.CTR140487 bus1=BMT171994242.1.2.3,bus2=BMT179013100.1.2.3,Phases=3,LineCode=tieSwitch,Length=0.001,Units=km,switch=T !numEQ NUMEQ:188521  - Data de conexão anterior06/2011.
new line.CTR140501 bus1=BMT171991564.1,bus2=BMT171991602.1,Phases=1,LineCode=tieSwitch1,Length=0.001,Units=km,switch=T !numEQ NUMEQ:43334  - Data de conexão anterior06/2011.
new line.CTR140508 bus1=BMT171991273.2,bus2=BMT176490681.2,Phases=1,LineCode=tieSwitch1,Length=0.001,Units=km,switch=T !numEQ NUMEQ:43336  - Data de conexão anterior06/2011.
new line.CTR140515 bus1=BMT171992484.2,bus2=BMT171992711.2,Phases=1,LineCode=tieSwitch1,Length=0.001,Units=km,switch=T !numEQ NUMEQ:223134  - Data de conexão anterior06/2011.
new line.CTR140592 bus1=BMT175408206.1.2.3,bus2=BMT175408660.1.2.3,Phases=3,LineCode=tieSwitch,Length=0.001,Units=km,switch=T !numEQ NUMEQ:55464  - Data de conexão anterior06/2011.
new line.CTR140599 bus1=BMT171992554.1,bus2=BMT171992556.1,Phases=1,LineCode=tieSwitch1,Length=0.001,Units=km,switch=T !numEQ NUMEQ:54289  - Data de conexão anterior06/2011.
new line.CTR140718 bus1=BMT171993319.2,bus2=BMT171993648.2,Phases=1,LineCode=tieSwitch1,Length=0.001,Units=km,switch=T !numEQ NUMEQ:37984  - Data de conexão anterior06/2011.
new line.CTR140725 bus1=BMT171991263.2,bus2=BMT176490497.2,Phases=1,LineCode=tieSwitch1,Length=0.001,Units=km,switch=T !numEQ NUMEQ:54284  - Data de conexão anterior06/2011.
new line.CTR140753 bus1=BMT171993063.3,bus2=BMT171993084.3,Phases=1,LineCode=tieSwitch1,Length=0.001,Units=km,switch=T !numEQ NUMEQ:43361  - Data de conexão anterior06/2011.
new line.CTR140795 bus1=BMT171991186.2,bus2=BMT171991656.2,Phases=1,LineCode=tieSwitch1,Length=0.001,Units=km,switch=T !numEQ NUMEQ:55456  - Data de conexão anterior06/2011.
new line.CTR140851 bus1=BMT179003865.1.2.3,bus2=BMT122859251.1.2.3,Phases=3,LineCode=tieSwitch,Length=0.001,Units=km,switch=T !numEQ NUMEQ:310924  - Data de conexão anterior06/2011.
open line.CTR140851 term=1
new line.CTR140900 bus1=BMT179021595.1.2.3,bus2=BMT179011902.1.2.3,Phases=3,LineCode=tieSwitch,Length=0.001,Units=km,switch=T !numEQ NUMEQ:321032  - Data de conexão anterior06/2011.
new line.CTR140914 bus1=BMT171993335.2,bus2=BMT171993636.2,Phases=1,LineCode=tieSwitch1,Length=0.001,Units=km,switch=T !numEQ NUMEQ:43320  - Data de conexão anterior06/2011.
new line.CTR140921 bus1=BMT171991768.1.2.3,bus2=BMT173079720.1.2.3,Phases=3,LineCode=tieSwitch,Length=0.001,Units=km,switch=T !numEQ NUMEQ:244074  - Data de conexão anterior06/2011.
new line.CTR140928 bus1=BMT171992061.1,bus2=BMT173856297.1,Phases=1,LineCode=tieSwitch1,Length=0.001,Units=km,switch=T !numEQ NUMEQ:294678  - Data de conexão anterior06/2011.
new line.CTR141026 bus1=BMT171992099.1,bus2=BMT171992469.1,Phases=1,LineCode=tieSwitch1,Length=0.001,Units=km,switch=T !numEQ NUMEQ:54298  - Data de conexão anterior06/2011.
new line.CTR141047 bus1=BMT171992568.1,bus2=BMT176459543.1,Phases=1,LineCode=tieSwitch1,Length=0.001,Units=km,switch=T !numEQ NUMEQ:43373  - Data de conexão anterior06/2011.
new line.CTR141187 bus1=BMT171992178.2,bus2=BMT171992194.2,Phases=1,LineCode=tieSwitch1,Length=0.001,Units=km,switch=T !numEQ NUMEQ:55720  - Data de conexão anterior06/2011.
new line.CTR141201 bus1=BMT171992111.1.2.3,bus2=BMT171992112.1.2.3,Phases=3,LineCode=tieSwitch,Length=0.001,Units=km,switch=T !numEQ NUMEQ:54292  - Data de conexão anterior06/2011.
new line.CTR141208 bus1=BMT171992146.1.2.3,bus2=BMT171992156.1.2.3,Phases=3,LineCode=tieSwitch,Length=0.001,Units=km,switch=T !numEQ NUMEQ:55466  - Data de conexão anterior06/2011.
new line.CTR141215 bus1=BMT171992803.1,bus2=BMT171992846.1,Phases=1,LineCode=tieSwitch1,Length=0.001,Units=km,switch=T !numEQ NUMEQ:43376  - Data de conexão anterior06/2011.
new line.CTR141222 bus1=BMT171994246.1.2.3,bus2=BMT179016693.1.2.3,Phases=3,LineCode=tieSwitch,Length=0.001,Units=km,switch=T !numEQ NUMEQ:146271  - Data de conexão anterior06/2011.
new line.CTR141425 bus1=BMT171993377.2,bus2=BMT171993388.2,Phases=1,LineCode=tieSwitch1,Length=0.001,Units=km,switch=T !numEQ NUMEQ:55922  - Data de conexão anterior06/2011.
new line.CTR141446 bus1=BMT171991563.1,bus2=BMT171991606.1,Phases=1,LineCode=tieSwitch1,Length=0.001,Units=km,switch=T !numEQ NUMEQ:302402  - Data de conexão anterior06/2011.
new line.CTR141453 bus1=BMT171991970.1.2.3,bus2=BMT171991972.1.2.3,Phases=3,LineCode=tieSwitch,Length=0.001,Units=km,switch=T !numEQ NUMEQ:55458  - Data de conexão anterior06/2011.
new line.CTR141460 bus1=BMT171992721.1,bus2=BMT171992722.1,Phases=1,LineCode=tieSwitch1,Length=0.001,Units=km,switch=T !numEQ NUMEQ:283064  - Data de conexão anterior06/2011.
new line.CTR141467 bus1=BMT171993376.2,bus2=BMT171993378.2,Phases=1,LineCode=tieSwitch1,Length=0.001,Units=km,switch=T !numEQ NUMEQ:43381  - Data de conexão anterior06/2011.
new line.CTR141726 bus1=BMT171991976.3,bus2=BMT171993059.3,Phases=1,LineCode=tieSwitch1,Length=0.001,Units=km,switch=T !numEQ NUMEQ:316139  - Data de conexão anterior06/2011.
new line.CTR206630 bus1=BMT171991977.1.2.3,bus2=BMT177407018.1.2.3,Phases=3,LineCode=tieSwitch,Length=0.001,Units=km,switch=T !numEQ NUMEQ:43368  - Data de conexão anterior06/2011.
new line.CTR206658 bus1=BMT171993228.1,bus2=BMT171993273.1,Phases=1,LineCode=tieSwitch1,Length=0.001,Units=km,switch=T !numEQ NUMEQ:199104  - Data de conexão anterior06/2011.
new line.CTR229793 bus1=BMT171992735.1,bus2=BMT177367052.1,Phases=1,LineCode=tieSwitch1,Length=0.001,Units=km,switch=T !numEQ NUMEQ:55712  - Data de conexão anterior06/2011.
new line.CTR22985 bus1=BMT171992992.3,bus2=BMT171992995.3,Phases=1,LineCode=tieSwitch1,Length=0.001,Units=km,switch=T !numEQ NUMEQ:147554  - Data de conexão anterior06/2011.
new line.CTR230017 bus1=BMT171993126.3,bus2=BMT171993133.3,Phases=1,LineCode=tieSwitch1,Length=0.001,Units=km,switch=T !numEQ NUMEQ:266539  - Data de conexão anterior06/2011.
new line.CTR230122 bus1=BMT171993149.1,bus2=BMT171993205.1,Phases=1,LineCode=tieSwitch1,Length=0.001,Units=km,switch=T !numEQ NUMEQ:55776  - Data de conexão anterior06/2011.
new line.CTR232110 bus1=BMT171993100.1.2.3,bus2=BMT171993102.1.2.3,Phases=3,LineCode=tieSwitch,Length=0.001,Units=km,switch=T !numEQ NUMEQ:201185  - Data de conexão anterior06/2011.
new line.CTR232726 bus1=BMT171991559.1,bus2=BMT174927300.1,Phases=1,LineCode=tieSwitch1,Length=0.001,Units=km,switch=T !numEQ NUMEQ:238452  - Data de conexão anterior06/2011.
new line.CTR232852 bus1=BMT171991191.1,bus2=BMT171991499.1,Phases=1,LineCode=tieSwitch1,Length=0.001,Units=km,switch=T !numEQ NUMEQ:167752  - Data de conexão anterior06/2011.
new line.CTR254818 bus1=BMT171992154.1.2.3,bus2=BMT171992197.1.2.3,Phases=3,LineCode=tieSwitch,Length=0.001,Units=km,switch=T !numEQ NUMEQ:139198  - Data de conexão anterior06/2011.
new line.CTR254832 bus1=BMT171992230.2,bus2=BMT171992246.2,Phases=1,LineCode=tieSwitch1,Length=0.001,Units=km,switch=T !numEQ NUMEQ:42369  - Data de conexão anterior06/2011.
new line.CTR254888 bus1=BMT171991991.3,bus2=BMT171992028.3,Phases=1,LineCode=tieSwitch1,Length=0.001,Units=km,switch=T !numEQ NUMEQ:144482  - Data de conexão anterior06/2011.
new line.CTR153213 bus1=BMT171993123.3,bus2=BMT171993137.3,Phases=1,LineCode=tieSwitch1,Length=0.001,Units=km,switch=T !numEQ NUMEQ:43356  - Data de conexão anterior06/2011.
new line.CTR221603 bus1=BMT171991562.1,bus2=BMT171991590.1,Phases=1,LineCode=tieSwitch1,Length=0.001,Units=km,switch=T !numEQ NUMEQ:43332  - Data de conexão anterior06/2011.
new line.CTR223192 bus1=BMT171991179.2,bus2=BMT172901539.2,Phases=1,LineCode=tieSwitch1,Length=0.001,Units=km,switch=T !numEQ NUMEQ:43329  - Data de conexão anterior06/2011.
new line.CTR248973 bus1=BMT171991583.1,bus2=BMT171991586.1,Phases=1,LineCode=tieSwitch1,Length=0.001,Units=km,switch=T !numEQ NUMEQ:168040  - Data de conexão anterior06/2011.
new line.CTR249183 bus1=BMT171992860.1,bus2=BMT171992863.1,Phases=1,LineCode=tieSwitch1,Length=0.001,Units=km,switch=T !numEQ NUMEQ:147082  - Data de conexão anterior06/2011.
new line.CTR25106 bus1=BMT171992213.1,bus2=BMT171992273.1,Phases=1,LineCode=tieSwitch1,Length=0.001,Units=km,switch=T !numEQ NUMEQ:117005  - Data de conexão anterior06/2011.
new line.CTR274586 bus1=BMT171991978.1.2.3,bus2=BMT171993046.1.2.3,Phases=3,LineCode=tieSwitch,Length=0.001,Units=km,switch=T !numEQ NUMEQ:183400  - Data de conexão anterior06/2011.
new line.CTR274852 bus1=BMT171994270.1.2.3,bus2=BMT171994272.1.2.3,Phases=3,LineCode=tieSwitch,Length=0.001,Units=km,switch=T !numEQ NUMEQ:168424  - Data de conexão anterior06/2011.
new line.CTR276273 bus1=BMT171992751.1,bus2=BMT171992786.1,Phases=1,LineCode=tieSwitch1,Length=0.001,Units=km,switch=T !numEQ NUMEQ:43374  - Data de conexão anterior06/2011.
new line.CTR37195 bus1=BMT171991336.2,bus2=BMT176490528.2,Phases=1,LineCode=tieSwitch1,Length=0.001,Units=km,switch=T !numEQ NUMEQ:184265  - Data de conexão anterior06/2011.
new line.CTR37314 bus1=BMT171992804.1,bus2=BMT171992829.1,Phases=1,LineCode=tieSwitch1,Length=0.001,Units=km,switch=T !numEQ NUMEQ:43377  - Data de conexão anterior06/2011.
new line.CTR415442 bus1=BMT171991789.1.2.3,bus2=BMT171991791.1.2.3,Phases=3,LineCode=tieSwitch,Length=0.001,Units=km,switch=T !numEQ NUMEQ:294290  - Data de conexão anterior06/2011.
new line.CTR415477 bus1=BMT171991105.1.2.3,bus2=BMT179577945.1.2.3,Phases=3,LineCode=tieSwitch,Length=0.001,Units=km,switch=T !numEQ NUMEQ:289068  - Data de conexão anterior06/2011.
new line.CTR415484 bus1=BMT171991100.1.2.3,bus2=BMT171991747.1.2.3,Phases=3,LineCode=tieSwitch,Length=0.001,Units=km,switch=T !numEQ NUMEQ:289067  - Data de conexão anterior06/2011.
new line.CTR41563 bus1=BMT171991979.1.2.3,bus2=BMT171993051.1.2.3,Phases=3,LineCode=tieSwitch,Length=0.001,Units=km,switch=T !numEQ NUMEQ:184232  - Data de conexão anterior06/2011.
new line.CTR451835 bus1=BMT171991975.1.2.3,bus2=BMT171993089.1.2.3,Phases=3,LineCode=tieSwitch,Length=0.001,Units=km,switch=T !numEQ NUMEQ:310815  - Data de conexão anterior06/2011.
new line.CTR857130 bus1=BMT171993576.2,bus2=BMT171993578.2,Phases=1,LineCode=tieSwitch1,Length=0.001,Units=km,switch=T !numEQ NUMEQ:158873  - Data de conexão anterior06/2011.
new line.CTR857291 bus1=BMT171992657.3,bus2=BMT171992672.3,Phases=1,LineCode=tieSwitch1,Length=0.001,Units=km,switch=T !numEQ NUMEQ:383580  - Data de conexão anterior06/2011.
new line.CTR902637 bus1=BMT171991077.1.2.3,bus2=BMT171991076.1.2.3,Phases=3,LineCode=tieSwitch,Length=0.001,Units=km,switch=T !numEQ NUMEQ:268901  - Data de conexão anterior06/2011.
new line.CTR902866 bus1=BMT171993657.1,bus2=BMT171993643.1,Phases=1,LineCode=tieSwitch1,Length=0.001,Units=km,switch=T !numEQ NUMEQ:258712  - Data de conexão anterior06/2011.
open line.CTR902866 term=1
new line.CTR903050 bus1=BMT171991745.1.2.3,bus2=BMT171991083.1.2.3,Phases=3,LineCode=tieSwitch,Length=0.001,Units=km,switch=T !numEQ NUMEQ:268903  - Data de conexão anterior06/2011.
open line.CTR903050 term=1
new line.CTR903059 bus1=BMT171991104.1.2.3,bus2=BMT171991736.1.2.3,Phases=3,LineCode=tieSwitch,Length=0.001,Units=km,switch=T !numEQ NUMEQ:268904  - Data de conexão anterior06/2011.
new line.CTR903065 bus1=BMT171991075.1.2.3,bus2=BMT171991078.1.2.3,Phases=3,LineCode=tieSwitch,Length=0.001,Units=km,switch=T !numEQ NUMEQ:268902  - Data de conexão anterior06/2011.
new line.CTR9209 bus1=BMT171992148.1.2.3,bus2=BMT171992149.1.2.3,Phases=3,LineCode=tieSwitch,Length=0.001,Units=km,switch=T !numEQ NUMEQ:139195  - Data de conexão anterior06/2011.
open line.CTR9209 term=1
new line.CTR951539 bus1=BMT179450351.1.2.3,bus2=BMT179450411.1.2.3,Phases=3,LineCode=tieSwitch,Length=0.001,Units=km,switch=T !numEQ NUMEQ:386802  - Data de conexão anterior06/2011.
open line.CTR951539 term=1
new line.CTR951540 bus1=BMT179450384.1.2.3,bus2=BMT179450543.1.2.3,Phases=3,LineCode=tieSwitch,Length=0.001,Units=km,switch=T !numEQ NUMEQ:386803  - Data de conexão anterior06/2011.
open line.CTR951540 term=1
new line.CTR131898 bus1=BMT171993159.1,bus2=BMT171993163.1,Phases=1,LineCode=tieSwitch1,Length=0.001,Units=km,switch=T !numEQ NUMEQ:43355  - Data de conexão anterior06/2011.
new line.CTR169866 bus1=BMT171993236.3,bus2=BMT171993261.3,Phases=1,LineCode=tieSwitch1,Length=0.001,Units=km,switch=T !numEQ NUMEQ:117002  - Data de conexão anterior06/2011.
new line.CTR211894 bus1=BMT171992086.2,bus2=BMT171992088.2,Phases=1,LineCode=tieSwitch1,Length=0.001,Units=km,switch=T !numEQ NUMEQ:142875  - Data de conexão anterior06/2011.
new line.CTR237045 bus1=BMT171991931.1.2.3,bus2=BMT179004090.1.2.3,Phases=3,LineCode=tieSwitch,Length=0.001,Units=km,switch=T !numEQ NUMEQ:43147  - Data de conexão anterior06/2011.
new line.CTR287291 bus1=BMT171992139.3,bus2=BMT171992339.3,Phases=1,LineCode=tieSwitch1,Length=0.001,Units=km,switch=T !numEQ NUMEQ:209750  - Data de conexão anterior06/2011.
new line.CTR39337 bus1=BMT171992207.3,bus2=BMT171992278.3,Phases=1,LineCode=tieSwitch1,Length=0.001,Units=km,switch=T !numEQ NUMEQ:144490  - Data de conexão anterior06/2011.
new line.CTR39561 bus1=BMT171992308.3,bus2=BMT171992317.3,Phases=1,LineCode=tieSwitch1,Length=0.001,Units=km,switch=T !numEQ NUMEQ:144481  - Data de conexão anterior06/2011.
new line.CTR44104 bus1=BMT171992904.3,bus2=BMT171993035.3,Phases=1,LineCode=tieSwitch1,Length=0.001,Units=km,switch=T !numEQ NUMEQ:43363  - Data de conexão anterior06/2011.
new line.CTR881476 bus1=BMT171992557.1,bus2=BMT171992558.1,Phases=1,LineCode=tieSwitch1,Length=0.001,Units=km,switch=T !numEQ NUMEQ:258605  - Data de conexão anterior06/2011.
new line.CTR881486 bus1=BMT171992571.1,bus2=BMT171992573.1,Phases=1,LineCode=tieSwitch1,Length=0.001,Units=km,switch=T !numEQ NUMEQ:258603  - Data de conexão anterior06/2011.
new line.CTR881488 bus1=BMT171992561.1,bus2=BMT171992604.1,Phases=1,LineCode=tieSwitch1,Length=0.001,Units=km,switch=T !numEQ NUMEQ:43371  - Data de conexão anterior06/2011.
new line.CTR882028 bus1=BMT171993698.3,bus2=BMT171993700.3,Phases=1,LineCode=tieSwitch1,Length=0.001,Units=km,switch=T !numEQ NUMEQ:163899  - Data de conexão anterior06/2011.
new line.CTR882137 bus1=BMT171993600.2,bus2=BMT171993602.2,Phases=1,LineCode=tieSwitch1,Length=0.001,Units=km,switch=T !numEQ NUMEQ:159412  - Data de conexão anterior06/2011.
new line.CTR882139 bus1=BMT171993535.2,bus2=BMT171993596.2,Phases=1,LineCode=tieSwitch1,Length=0.001,Units=km,switch=T !numEQ NUMEQ:159409  - Data de conexão anterior06/2011.
new line.CTR882259 bus1=BMT171991164.1,bus2=BMT171991166.1,Phases=1,LineCode=tieSwitch1,Length=0.001,Units=km,switch=T !numEQ NUMEQ:176853  - Data de conexão anterior06/2011.
new line.CTR882262 bus1=BMT171993238.2,bus2=BMT171993239.2,Phases=1,LineCode=tieSwitch1,Length=0.001,Units=km,switch=T !numEQ NUMEQ:235077  - Data de conexão anterior06/2011.
new line.CTR882563 bus1=BMT171992344.1,bus2=BMT171992346.1,Phases=1,LineCode=tieSwitch1,Length=0.001,Units=km,switch=T !numEQ NUMEQ:163977  - Data de conexão anterior06/2011.
new line.CTR901194 bus1=BMT171994213.1.2.3,bus2=BMT171994221.1.2.3,Phases=3,LineCode=tieSwitch,Length=0.001,Units=km,switch=T !numEQ NUMEQ:264790  - Data de conexão anterior06/2011.
new line.CTR901199 bus1=BMT171994216.1.2.3,bus2=BMT171994218.1.2.3,Phases=3,LineCode=tieSwitch,Length=0.001,Units=km,switch=T !numEQ NUMEQ:264791  - Data de conexão anterior06/2011.
new line.CTR901813 bus1=BMT171991312.2,bus2=BMT176490532.2,Phases=1,LineCode=tieSwitch1,Length=0.001,Units=km,switch=T !numEQ NUMEQ:248386  - Data de conexão anterior06/2011.
new line.CTR91781 bus1=BMT179003070.1.2.3,bus2=BMT175873164.1.2.3,Phases=3,LineCode=tieSwitch,Length=0.001,Units=km,switch=T !numEQ NUMEQ:104852  - Data de conexão anterior06/2011.
new line.CTR919331 bus1=BMT173079715.1.2.3,bus2=BMT175125784.1.2.3,Phases=3,LineCode=tieSwitch,Length=0.001,Units=km,switch=T !numEQ NUMEQ:324928  - Data de conexão anterior06/2011.
new line.CTR9370 bus1=BMT171991947.1.2.3,bus2=BMT171993287.1.2.3,Phases=3,LineCode=tieSwitch,Length=0.001,Units=km,switch=T !numEQ NUMEQ:258710  - Data de conexão anterior06/2011.
new line.CTR228267 bus1=BMT171991271.2,bus2=BMT176490692.2,Phases=1,LineCode=tieSwitch1,Length=0.001,Units=km,switch=T !numEQ NUMEQ:43337  - Data de conexão anterior06/2011.
new line.CTR228344 bus1=BMT171993155.1,bus2=BMT171993183.1,Phases=1,LineCode=tieSwitch1,Length=0.001,Units=km,switch=T !numEQ NUMEQ:43354  - Data de conexão anterior06/2011.
new line.CTR228554 bus1=BMT171992555.1,bus2=BMT171992610.1,Phases=1,LineCode=tieSwitch1,Length=0.001,Units=km,switch=T !numEQ NUMEQ:54290  - Data de conexão anterior06/2011.
new line.CTR251990 bus1=BMT171991110.1,bus2=BMT171991695.1,Phases=1,LineCode=tieSwitch1,Length=0.001,Units=km,switch=T !numEQ NUMEQ:211004  - Data de conexão anterior06/2011.
new line.CTR253222 bus1=BMT171991967.1,bus2=BMT171993113.1,Phases=1,LineCode=tieSwitch1,Length=0.001,Units=km,switch=T !numEQ NUMEQ:169946  - Data de conexão anterior06/2011.
new line.CTR279675 bus1=BMT171991160.1,bus2=BMT171991162.1,Phases=1,LineCode=tieSwitch1,Length=0.001,Units=km,switch=T !numEQ NUMEQ:207204  - Data de conexão anterior06/2011.
new line.CTR352183 bus1=BMT171993710.3,bus2=BMT171993712.3,Phases=1,LineCode=tieSwitch1,Length=0.001,Units=km,switch=T !numEQ NUMEQ:281756  - Data de conexão anterior06/2011.
new line.CTR42536 bus1=BMT171991187.1,bus2=BMT176489982.1,Phases=1,LineCode=tieSwitch1,Length=0.001,Units=km,switch=T !numEQ NUMEQ:252490  - Data de conexão anterior06/2011.
new line.CTR61198 bus1=BMT179003868.1.2.3,bus2=BMT171994189.1.2.3,Phases=3,LineCode=tieSwitch,Length=0.001,Units=km,switch=T !numEQ NUMEQ:309210  - Data de conexão anterior06/2011.
open line.CTR61198 term=1
new line.CTR846472 bus1=BMT171992514.2,bus2=BMT171992677.2,Phases=1,LineCode=tieSwitch1,Length=0.001,Units=km,switch=T !numEQ NUMEQ:314234  - Data de conexão anterior06/2011.
new line.CTR846475 bus1=BMT171992678.2,bus2=BMT171992679.2,Phases=1,LineCode=tieSwitch1,Length=0.001,Units=km,switch=T !numEQ NUMEQ:314235  - Data de conexão anterior06/2011.
new line.CTR846477 bus1=BMT171991943.1,bus2=BMT171993676.1,Phases=1,LineCode=tieSwitch1,Length=0.001,Units=km,switch=T !numEQ NUMEQ:315244  - Data de conexão anterior06/2011.
new line.CTR846479 bus1=BMT171993681.1,bus2=BMT171993687.1,Phases=1,LineCode=tieSwitch1,Length=0.001,Units=km,switch=T !numEQ NUMEQ:315243  - Data de conexão anterior06/2011.
new line.CTR847766 bus1=BMT171993147.1,bus2=BMT171993148.1,Phases=1,LineCode=tieSwitch1,Length=0.001,Units=km,switch=T !numEQ NUMEQ:314149  - Data de conexão anterior06/2011.
new line.CTR847767 bus1=BMT171993167.1,bus2=BMT171993178.1,Phases=1,LineCode=tieSwitch1,Length=0.001,Units=km,switch=T !numEQ NUMEQ:314150  - Data de conexão anterior06/2011.
new line.CTR863284 bus1=BMT171992126.3,bus2=BMT171992391.3,Phases=1,LineCode=tieSwitch1,Length=0.001,Units=km,switch=T !numEQ NUMEQ:372491  - Data de conexão anterior06/2011.
new line.CTR892976 bus1=BMT171991320.2,bus2=BMT176490520.2,Phases=1,LineCode=tieSwitch1,Length=0.001,Units=km,switch=T !numEQ NUMEQ:269602  - Data de conexão anterior06/2011.
new line.CTR923767 bus1=BMT175395480.1.2.3,bus2=BMT174190596.1.2.3,Phases=3,LineCode=tieSwitch,Length=0.001,Units=km,switch=T !numEQ NUMEQ:324756  - Data de conexão anterior06/2011.
open line.CTR923767 term=1
new line.CTR941572 bus1=BMT177538396.1.2.3,bus2=BMT179001890.1.2.3,Phases=3,LineCode=tieSwitch,Length=0.001,Units=km,switch=T !numEQ NUMEQ:321070  - Data de conexão anterior06/2011.
new line.CTR96856 bus1=BMT171992953.3,bus2=BMT171992964.3,Phases=1,LineCode=tieSwitch1,Length=0.001,Units=km,switch=T !numEQ NUMEQ:122649  - Data de conexão anterior06/2011.
new line.CTRR36882 bus1=BMT171993297.2,bus2=BMT171993307.2,Phases=1,LineCode=tieSwitch1,Length=0.001,Units=km,switch=T !numEQ NUMEQ:258713  - Data de conexão anterior06/2011.
new line.CTR255021 bus1=BMT171993019.3,bus2=BMT171993031.3,Phases=1,LineCode=tieSwitch1,Length=0.001,Units=km,switch=T !numEQ NUMEQ:171073  - Data de conexão anterior06/2011.
new line.CTR255161 bus1=BMT171993499.2,bus2=BMT171993505.2,Phases=1,LineCode=tieSwitch1,Length=0.001,Units=km,switch=T !numEQ NUMEQ:168038  - Data de conexão anterior06/2011.
new line.CTR256218 bus1=BMT171994194.1.2.3,bus2=BMT175749380.1.2.3,Phases=3,LineCode=tieSwitch,Length=0.001,Units=km,switch=T !numEQ NUMEQ:183503  - Data de conexão anterior06/2011.
new line.CTR2804 bus1=BMT171991254.2,bus2=BMT176490675.2,Phases=1,LineCode=tieSwitch1,Length=0.001,Units=km,switch=T !numEQ NUMEQ:43339  - Data de conexão anterior06/2011.
new line.CTR283077 bus1=BMT171991938.3,bus2=BMT173498584.3,Phases=1,LineCode=tieSwitch1,Length=0.001,Units=km,switch=T !numEQ NUMEQ:207276  - Data de conexão anterior06/2011.
new line.CTR283245 bus1=BMT171992455.3,bus2=BMT171992461.3,Phases=1,LineCode=tieSwitch1,Length=0.001,Units=km,switch=T !numEQ NUMEQ:207408  - Data de conexão anterior06/2011.
new line.CTR352876 bus1=BMT171991161.1,bus2=BMT171990877.1,Phases=1,LineCode=tieSwitch1,Length=0.001,Units=km,switch=T !numEQ NUMEQ:188878  - Data de conexão anterior06/2011.
open line.CTR352876 term=1
new line.CTR35326 bus1=BMT171992747.1,bus2=BMT171992867.1,Phases=1,LineCode=tieSwitch1,Length=0.001,Units=km,switch=T !numEQ NUMEQ:188709  - Data de conexão anterior06/2011.
new line.CTR353303 bus1=BMT171993583.2,bus2=BMT171993585.2,Phases=1,LineCode=tieSwitch1,Length=0.001,Units=km,switch=T !numEQ NUMEQ:229051  - Data de conexão anterior06/2011.
new line.CTR42599 bus1=BMT171991308.2,bus2=BMT176490542.2,Phases=1,LineCode=tieSwitch1,Length=0.001,Units=km,switch=T !numEQ NUMEQ:43347  - Data de conexão anterior06/2011.
new line.CTR42795 bus1=BMT171991956.1.2.3,bus2=BMT171991957.1.2.3,Phases=3,LineCode=tieSwitch,Length=0.001,Units=km,switch=T !numEQ NUMEQ:188551  - Data de conexão anterior06/2011.
new line.CTR42872 bus1=BMT171992832.1,bus2=BMT171992842.1,Phases=1,LineCode=tieSwitch1,Length=0.001,Units=km,switch=T !numEQ NUMEQ:43378  - Data de conexão anterior06/2011.
new line.CTR6731 bus1=BMT171991193.1.2.3,bus2=BMT176491962.1.2.3,Phases=3,LineCode=tieSwitch,Length=0.001,Units=km,switch=T !numEQ NUMEQ:167753  - Data de conexão anterior06/2011.
new line.CTR849087 bus1=BMT171993355.2,bus2=BMT171993513.2,Phases=1,LineCode=tieSwitch1,Length=0.001,Units=km,switch=T !numEQ NUMEQ:373656  - Data de conexão anterior06/2011.
new line.CTR864564 bus1=BMT171992411.1,bus2=BMT173494460.1,Phases=1,LineCode=tieSwitch1,Length=0.001,Units=km,switch=T !numEQ NUMEQ:237387  - Data de conexão anterior06/2011.
new line.CTR892384 bus1=BMT171991417.2,bus2=BMT176490629.2,Phases=1,LineCode=tieSwitch1,Length=0.001,Units=km,switch=T !numEQ NUMEQ:159416  - Data de conexão anterior06/2011.
new line.CTR939576 bus1=BMT177094385.2,bus2=BMT178349500.2,Phases=1,LineCode=tieSwitch1,Length=0.001,Units=km,switch=T !numEQ NUMEQ:352568  - Data de conexão anterior06/2011.
new line.CTRR34133 bus1=BMT171991074.1.2.3,bus2=BMT171991073.1.2.3,Phases=3,LineCode=tieSwitch,Length=0.001,Units=km,switch=T !numEQ NUMEQ:236784
open line.CTRR34133 term=1
new line.CTRR3574 bus1=BMT171991927.1.2.3,bus2=BMT171991930.1.2.3,Phases=3,LineCode=tieSwitch,Length=0.001,Units=km,switch=T !numEQ NUMEQ:170918
new line.CTR10063 bus1=BMT171991130.1.2.3,bus2=BMT171991176.1.2.3,Phases=3,LineCode=tieSwitch,Length=0.001,Units=km,switch=T !numEQ NUMEQ:167750  - Data de conexão anterior06/2011.
new line.CTR10077 bus1=BMT178852377.1.2.3,bus2=BMT178852380.1.2.3,Phases=3,LineCode=tieSwitch,Length=0.001,Units=km,switch=T !numEQ NUMEQ:167743  - Data de conexão anterior06/2011.
new line.CTR10091 bus1=BMT171991206.1,bus2=BMT171991491.1,Phases=1,LineCode=tieSwitch1,Length=0.001,Units=km,switch=T !numEQ NUMEQ:167755  - Data de conexão anterior06/2011.
new line.CTR10182 bus1=BMT171991939.3,bus2=BMT171993703.3,Phases=1,LineCode=tieSwitch1,Length=0.001,Units=km,switch=T !numEQ NUMEQ:142874  - Data de conexão anterior06/2011.
new line.CTR217634 bus1=BMT171993677.1,bus2=BMT171993679.1,Phases=1,LineCode=tieSwitch1,Length=0.001,Units=km,switch=T !numEQ NUMEQ:145071  - Data de conexão anterior06/2011.
new line.CTR217676 bus1=BMT171992202.2,bus2=BMT171992216.2,Phases=1,LineCode=tieSwitch1,Length=0.001,Units=km,switch=T !numEQ NUMEQ:55724  - Data de conexão anterior06/2011.
new line.CTR218292 bus1=BMT171992103.1,bus2=BMT171992465.1,Phases=1,LineCode=tieSwitch1,Length=0.001,Units=km,switch=T !numEQ NUMEQ:134311  - Data de conexão anterior06/2011.
new line.CTR219202 bus1=BMT171993097.1.2.3,bus2=BMT171993098.1.2.3,Phases=3,LineCode=tieSwitch,Length=0.001,Units=km,switch=T !numEQ NUMEQ:201183  - Data de conexão anterior06/2011.
new line.CTR219699 bus1=BMT171991996.3,bus2=BMT171992025.3,Phases=1,LineCode=tieSwitch1,Length=0.001,Units=km,switch=T !numEQ NUMEQ:168967  - Data de conexão anterior06/2011.
new line.CTR244304 bus1=BMT171992065.2,bus2=BMT171992079.2,Phases=1,LineCode=tieSwitch1,Length=0.001,Units=km,switch=T !numEQ NUMEQ:55467  - Data de conexão anterior06/2011.
new line.CTR244528 bus1=BMT171992515.3,bus2=BMT171992646.3,Phases=1,LineCode=tieSwitch1,Length=0.001,Units=km,switch=T !numEQ NUMEQ:226773  - Data de conexão anterior06/2011.
new line.CTR265787 bus1=BMT171993406.2,bus2=BMT171993434.2,Phases=1,LineCode=tieSwitch1,Length=0.001,Units=km,switch=T !numEQ NUMEQ:188950  - Data de conexão anterior06/2011.
new line.CTR266235 bus1=BMT171992151.3,bus2=BMT178345294.3,Phases=1,LineCode=tieSwitch1,Length=0.001,Units=km,switch=T !numEQ NUMEQ:55722  - Data de conexão anterior06/2011.
new line.CTR267341 bus1=BMT142657204.3,bus2=BMT171443054.3,Phases=1,LineCode=tieSwitch1,Length=0.001,Units=km,switch=T !numEQ NUMEQ:170031  - Data de conexão anterior06/2011.
new line.CTR29313 bus1=BMT171992433.1,bus2=BMT171992435.1,Phases=1,LineCode=tieSwitch1,Length=0.001,Units=km,switch=T !numEQ NUMEQ:237394  - Data de conexão anterior06/2011.
new line.CTR29327 bus1=BMT171993617.2,bus2=BMT171993620.2,Phases=1,LineCode=tieSwitch1,Length=0.001,Units=km,switch=T !numEQ NUMEQ:143130  - Data de conexão anterior06/2011.
new line.CTR32414 bus1=BMT176274819.1,bus2=BMT171992820.1,Phases=1,LineCode=tieSwitch1,Length=0.001,Units=km,switch=T !numEQ NUMEQ:55923  - Data de conexão anterior06/2011.
open line.CTR32414 term=1
new line.CTR366897 bus1=BMT171992095.1.2.3,bus2=BMT177106213.1.2.3,Phases=3,LineCode=tieSwitch,Length=0.001,Units=km,switch=T !numEQ NUMEQ:207559  - Data de conexão anterior06/2011.
new line.CTR366911 bus1=BMT171992487.1.2.3,bus2=BMT176720093.1.2.3,Phases=3,LineCode=tieSwitch,Length=0.001,Units=km,switch=T !numEQ NUMEQ:226769  - Data de conexão anterior06/2011.
new line.CTR43558 bus1=BMT171991394.2,bus2=BMT176490611.2,Phases=1,LineCode=tieSwitch1,Length=0.001,Units=km,switch=T !numEQ NUMEQ:316015  - Data de conexão anterior06/2011.
new line.CTR438899 bus1=BMT171993076.3,bus2=BMT171993081.3,Phases=1,LineCode=tieSwitch1,Length=0.001,Units=km,switch=T !numEQ NUMEQ:310824  - Data de conexão anterior06/2011.
new line.CTR43985 bus1=BMT171991426.2,bus2=BMT176490634.2,Phases=1,LineCode=tieSwitch1,Length=0.001,Units=km,switch=T !numEQ NUMEQ:122648  - Data de conexão anterior06/2011.
new line.CTR7046 bus1=BMT171992039.1.2.3,bus2=BMT171992040.1.2.3,Phases=3,LineCode=tieSwitch,Length=0.001,Units=km,switch=T !numEQ NUMEQ:107518  - Data de conexão anterior06/2011.
new line.CTR869935 bus1=BMT171993226.2,bus2=BMT171993283.2,Phases=1,LineCode=tieSwitch1,Length=0.001,Units=km,switch=T !numEQ NUMEQ:236757  - Data de conexão anterior06/2011.
new line.CTR885567 bus1=BMT179093025.2,bus2=BMT179093027.2,Phases=1,LineCode=tieSwitch1,Length=0.001,Units=km,switch=T !numEQ NUMEQ:263970  - Data de conexão anterior06/2011.
new line.CTR885701 bus1=BMT171992915.3,bus2=BMT171992970.3,Phases=1,LineCode=tieSwitch1,Length=0.001,Units=km,switch=T !numEQ NUMEQ:233228  - Data de conexão anterior06/2011.
new line.CTR899756 bus1=BMT166596991.1.2.3,bus2=BMT179938443.1.2.3,Phases=3,LineCode=tieSwitch,Length=0.001,Units=km,switch=T !numEQ NUMEQ:269358  - Data de conexão anterior06/2011.
new line.CTR913474 bus1=BMT171454785.1.2.3,bus2=BMT171454786.1.2.3,Phases=3,LineCode=tieSwitch,Length=0.001,Units=km,switch=T !numEQ NUMEQ:311850  - Data de conexão anterior06/2011.
new line.CTR913475 bus1=BMT171262460.1.2.3,bus2=BMT171454777.1.2.3,Phases=3,LineCode=tieSwitch,Length=0.001,Units=km,switch=T !numEQ NUMEQ:270196  - Data de conexão anterior06/2011.
new line.CTR914298 bus1=BMT171993301.1.2.3,bus2=BMT171993666.1.2.3,Phases=3,LineCode=tieSwitch,Length=0.001,Units=km,switch=T !numEQ NUMEQ:274880  - Data de conexão anterior06/2011.
new line.CTR914587 bus1=BMT171993660.1.2.3,bus2=BMT171993661.1.2.3,Phases=3,LineCode=tieSwitch,Length=0.001,Units=km,switch=T !numEQ NUMEQ:274878  - Data de conexão anterior06/2011.
new line.CTR931196 bus1=BMT175408663.1.2.3,bus2=BMT175410774.1.2.3,Phases=3,LineCode=tieSwitch,Length=0.001,Units=km,switch=T !numEQ NUMEQ:330192  - Data de conexão anterior06/2011.
new line.CTRR7335 bus1=BMT171992901.3,bus2=BMT179726309.3,Phases=1,LineCode=tieSwitch1,Length=0.001,Units=km,switch=T !numEQ NUMEQ:223204  - Data de conexão anterior06/2011.
new line.CTR141796 bus1=BMT171993394.2,bus2=BMT171993397.2,Phases=1,LineCode=tieSwitch1,Length=0.001,Units=km,switch=T !numEQ NUMEQ:43379  - Data de conexão anterior06/2011.
new line.CTR142363 bus1=BMT171992070.2,bus2=BMT171992077.2,Phases=1,LineCode=tieSwitch1,Length=0.001,Units=km,switch=T !numEQ NUMEQ:55468  - Data de conexão anterior06/2011.
new line.CTR142370 bus1=BMT171992162.2,bus2=BMT171992163.2,Phases=1,LineCode=tieSwitch1,Length=0.001,Units=km,switch=T !numEQ NUMEQ:254821  - Data de conexão anterior06/2011.
new line.CTR142902 bus1=BMT171991534.1,bus2=BMT177871349.1,Phases=1,LineCode=tieSwitch1,Length=0.001,Units=km,switch=T !numEQ NUMEQ:372488  - Data de conexão anterior06/2011.
new line.CTR14354 bus1=BMT171992116.1,bus2=BMT171992407.1,Phases=1,LineCode=tieSwitch1,Length=0.001,Units=km,switch=T !numEQ NUMEQ:237386  - Data de conexão anterior06/2011.
new line.CTR209052 bus1=BMT171991315.2,bus2=BMT176490522.2,Phases=1,LineCode=tieSwitch1,Length=0.001,Units=km,switch=T !numEQ NUMEQ:170926  - Data de conexão anterior06/2011.
new line.CTR209640 bus1=BMT171992136.1,bus2=BMT171992343.1,Phases=1,LineCode=tieSwitch1,Length=0.001,Units=km,switch=T !numEQ NUMEQ:119041  - Data de conexão anterior06/2011.
new line.CTR211180 bus1=BMT171991205.1,bus2=BMT171991493.1,Phases=1,LineCode=tieSwitch1,Length=0.001,Units=km,switch=T !numEQ NUMEQ:171520  - Data de conexão anterior06/2011.
new line.CTR233769 bus1=BMT171991692.1.2.3,bus2=BMT171991693.1.2.3,Phases=3,LineCode=tieSwitch,Length=0.001,Units=km,switch=T !numEQ NUMEQ:189212  - Data de conexão anterior06/2011.
new line.CTR234595 bus1=BMT171992553.1,bus2=BMT171992634.1,Phases=1,LineCode=tieSwitch1,Length=0.001,Units=km,switch=T !numEQ NUMEQ:43370  - Data de conexão anterior06/2011.
new line.CTR235743 bus1=BMT171991107.1.2.3,bus2=BMT171991733.1.2.3,Phases=3,LineCode=tieSwitch,Length=0.001,Units=km,switch=T !numEQ NUMEQ:207533  - Data de conexão anterior06/2011.
new line.CTR259123 bus1=BMT171993048.1.2.3,bus2=BMT171993049.1.2.3,Phases=3,LineCode=tieSwitch,Length=0.001,Units=km,switch=T !numEQ NUMEQ:183401  - Data de conexão anterior06/2011.
new line.CTR26002 bus1=BMT171991764.1.2.3,bus2=BMT171991794.1.2.3,Phases=3,LineCode=tieSwitch,Length=0.001,Units=km,switch=T !numEQ NUMEQ:128033  - Data de conexão anterior06/2011.
new line.CTR261062 bus1=BMT122859412.3,bus2=BMT171445679.3,Phases=1,LineCode=tieSwitch1,Length=0.001,Units=km,switch=T !numEQ NUMEQ:144579  - Data de conexão anterior06/2011.
new line.CTR284225 bus1=BMT171991136.2,bus2=BMT171991139.2,Phases=1,LineCode=tieSwitch1,Length=0.001,Units=km,switch=T !numEQ NUMEQ:207224  - Data de conexão anterior06/2011.
new line.CTR284232 bus1=BMT171993544.2,bus2=BMT177897239.2,Phases=1,LineCode=tieSwitch1,Length=0.001,Units=km,switch=T !numEQ NUMEQ:207612  - Data de conexão anterior06/2011.
new line.CTR284246 bus1=BMT171992117.1,bus2=BMT171992403.1,Phases=1,LineCode=tieSwitch1,Length=0.001,Units=km,switch=T !numEQ NUMEQ:207483  - Data de conexão anterior06/2011.
new line.CTR28466 bus1=BMT171991535.1,bus2=BMT171991536.1,Phases=1,LineCode=tieSwitch1,Length=0.001,Units=km,switch=T !numEQ NUMEQ:43335  - Data de conexão anterior06/2011.
new line.CTR286703 bus1=BMT171991111.1.2.3,bus2=BMT171991702.1.2.3,Phases=3,LineCode=tieSwitch,Length=0.001,Units=km,switch=T !numEQ NUMEQ:214652  - Data de conexão anterior06/2011.
new line.CTR433194 bus1=BMT171991772.1.2.3,bus2=BMT171991777.1.2.3,Phases=3,LineCode=tieSwitch,Length=0.001,Units=km,switch=T !numEQ NUMEQ:302493  - Data de conexão anterior06/2011.
new line.CTR867094 bus1=BMT171991182.1.2.3,bus2=BMT171991660.1.2.3,Phases=3,LineCode=tieSwitch,Length=0.001,Units=km,switch=T !numEQ NUMEQ:238792  - Data de conexão anterior06/2011.
new line.CTR867380 bus1=BMT171993456.2,bus2=BMT171993509.2,Phases=1,LineCode=tieSwitch1,Length=0.001,Units=km,switch=T !numEQ NUMEQ:240958  - Data de conexão anterior06/2011.
new line.CTR879713 bus1=BMT171991403.2,bus2=BMT176490609.2,Phases=1,LineCode=tieSwitch1,Length=0.001,Units=km,switch=T !numEQ NUMEQ:372351  - Data de conexão anterior06/2011.
new line.CTR879804 bus1=BMT158813391.1.2.3,bus2=BMT171446750.1.2.3,Phases=3,LineCode=tieSwitch,Length=0.001,Units=km,switch=T !numEQ NUMEQ:241310  - Data de conexão anterior06/2011.
new line.CTR894810 bus1=BMT171993263.3,bus2=BMT171993268.3,Phases=1,LineCode=tieSwitch1,Length=0.001,Units=km,switch=T !numEQ NUMEQ:159251  - Data de conexão anterior06/2011.
new line.CTR896341 bus1=BMT171992949.3,bus2=BMT171992968.3,Phases=1,LineCode=tieSwitch1,Length=0.001,Units=km,switch=T !numEQ NUMEQ:271227  - Data de conexão anterior06/2011.
new line.CTR909864 bus1=BMT171991973.1.2.3,bus2=BMT171993096.1.2.3,Phases=3,LineCode=tieSwitch,Length=0.001,Units=km,switch=T !numEQ NUMEQ:278470  - Data de conexão anterior06/2011.
new line.CTR910511 bus1=BMT179450350.1.2.3,bus2=BMT170235423.1.2.3,Phases=3,LineCode=tieSwitch,Length=0.001,Units=km,switch=T !numEQ NUMEQ:270678  - Data de conexão anterior06/2011.
open line.CTR910511 term=1
new line.CTR910514 bus1=BMT170235971.1.2.3,bus2=BMT179450347.1.2.3,Phases=3,LineCode=tieSwitch,Length=0.001,Units=km,switch=T !numEQ NUMEQ:270677  - Data de conexão anterior06/2011.
new line.CTR910519 bus1=BMT170236281.1.2.3,bus2=BMT175395479.1.2.3,Phases=3,LineCode=tieSwitch,Length=0.001,Units=km,switch=T !numEQ NUMEQ:270675  - Data de conexão anterior06/2011.
new line.CTRR41623 bus1=BMT171991986.1.2.3,bus2=BMT171992034.1.2.3,Phases=3,LineCode=tieSwitch,Length=0.001,Units=km,switch=T !numEQ NUMEQ:277984  - Data de conexão anterior06/2011.
new line.CTRR41735 bus1=BMT170237649.1.2.3,bus2=BMT175395742.1.2.3,Phases=3,LineCode=tieSwitch,Length=0.001,Units=km,switch=T !numEQ NUMEQ:270674  - Data de conexão anterior06/2011.
new line.CTRR5527 bus1=BMT171991500.1,bus2=BMT171991501.1,Phases=1,LineCode=tieSwitch1,Length=0.001,Units=km,switch=T !numEQ NUMEQ:212020  - Data de conexão anterior06/2011.
new line.CTR145527 bus1=BMT171992251.2,bus2=BMT171992252.2,Phases=1,LineCode=tieSwitch1,Length=0.001,Units=km,switch=T !numEQ NUMEQ:134630  - Data de conexão anterior06/2011.
new line.CTR19177 bus1=BMT171993188.1,bus2=BMT171993192.1,Phases=1,LineCode=tieSwitch1,Length=0.001,Units=km,switch=T !numEQ NUMEQ:143873  - Data de conexão anterior06/2011.
new line.CTR216073 bus1=BMT171992366.1,bus2=BMT171992382.1,Phases=1,LineCode=tieSwitch1,Length=0.001,Units=km,switch=T !numEQ NUMEQ:43386  - Data de conexão anterior06/2011.
new line.CTR24084 bus1=BMT171992909.3,bus2=BMT171993000.3,Phases=1,LineCode=tieSwitch1,Length=0.001,Units=km,switch=T !numEQ NUMEQ:199870  - Data de conexão anterior06/2011.
new line.CTR241147 bus1=BMT171994209.1.2.3,bus2=BMT171994210.1.2.3,Phases=3,LineCode=tieSwitch,Length=0.001,Units=km,switch=T !numEQ NUMEQ:321033  - Data de conexão anterior06/2011.
new line.CTR267754 bus1=BMT171992625.1,bus2=BMT171992628.1,Phases=1,LineCode=tieSwitch1,Length=0.001,Units=km,switch=T !numEQ NUMEQ:143913  - Data de conexão anterior06/2011.
new line.CTR269616 bus1=BMT171992241.3,bus2=BMT171992264.3,Phases=1,LineCode=tieSwitch1,Length=0.001,Units=km,switch=T !numEQ NUMEQ:139199  - Data de conexão anterior06/2011.
new line.CTR269896 bus1=BMT171991299.2,bus2=BMT176490572.2,Phases=1,LineCode=tieSwitch1,Length=0.001,Units=km,switch=T !numEQ NUMEQ:54286  - Data de conexão anterior06/2011.
new line.CTR270246 bus1=BMT171994254.1.2.3,bus2=BMT179013371.1.2.3,Phases=3,LineCode=tieSwitch,Length=0.001,Units=km,switch=T !numEQ NUMEQ:188358  - Data de conexão anterior06/2011.
new line.CTR33387 bus1=BMT171992812.1,bus2=BMT171992821.1,Phases=1,LineCode=tieSwitch1,Length=0.001,Units=km,switch=T !numEQ NUMEQ:189052  - Data de conexão anterior06/2011.
new line.CTR3371 bus1=BMT171992547.1,bus2=BMT171992640.1,Phases=1,LineCode=tieSwitch1,Length=0.001,Units=km,switch=T !numEQ NUMEQ:122650  - Data de conexão anterior06/2011.
new line.CTR367002 bus1=BMT171992497.3,bus2=BMT171992689.3,Phases=1,LineCode=tieSwitch1,Length=0.001,Units=km,switch=T !numEQ NUMEQ:226770  - Data de conexão anterior06/2011.
new line.CTR367009 bus1=BMT171992499.3,bus2=BMT171992687.3,Phases=1,LineCode=tieSwitch1,Length=0.001,Units=km,switch=T !numEQ NUMEQ:226771  - Data de conexão anterior06/2011.
new line.CTR367030 bus1=BMT171992518.2,bus2=BMT171992520.2,Phases=1,LineCode=tieSwitch1,Length=0.001,Units=km,switch=T !numEQ NUMEQ:226775  - Data de conexão anterior06/2011.
new line.CTR40702 bus1=BMT171993615.2,bus2=BMT171993626.2,Phases=1,LineCode=tieSwitch1,Length=0.001,Units=km,switch=T !numEQ NUMEQ:168005  - Data de conexão anterior06/2011.
new line.CTR40716 bus1=BMT171993357.2,bus2=BMT179273093.2,Phases=1,LineCode=tieSwitch1,Length=0.001,Units=km,switch=T !numEQ NUMEQ:294587  - Data de conexão anterior06/2011.
new line.CTR40772 bus1=BMT171992750.1,bus2=BMT176274796.1,Phases=1,LineCode=tieSwitch1,Length=0.001,Units=km,switch=T !numEQ NUMEQ:171661  - Data de conexão anterior06/2011.
new line.CTR40814 bus1=BMT171992198.1,bus2=BMT171992282.1,Phases=1,LineCode=tieSwitch1,Length=0.001,Units=km,switch=T !numEQ NUMEQ:54294  - Data de conexão anterior06/2011.
new line.CTR40849 bus1=BMT171992516.1,bus2=BMT171992540.1,Phases=1,LineCode=tieSwitch1,Length=0.001,Units=km,switch=T !numEQ NUMEQ:226774  - Data de conexão anterior06/2011.
new line.CTR450218 bus1=BMT172255145.1.2.3,bus2=BMT171991092.1.2.3,Phases=3,LineCode=tieSwitch,Length=0.001,Units=km,switch=T !numEQ NUMEQ:188807  - Data de conexão anterior06/2011.
new line.CTR845518 bus1=BMT171991133.2,bus2=BMT171991141.2,Phases=1,LineCode=tieSwitch1,Length=0.001,Units=km,switch=T !numEQ NUMEQ:372332  - Data de conexão anterior06/2011.
new line.CTR858315 bus1=BMT171993344.2,bus2=BMT171993604.2,Phases=1,LineCode=tieSwitch1,Length=0.001,Units=km,switch=T !numEQ NUMEQ:373616  - Data de conexão anterior06/2011.
new line.CTR858316 bus1=BMT171993613.2,bus2=BMT171993632.2,Phases=1,LineCode=tieSwitch1,Length=0.001,Units=km,switch=T !numEQ NUMEQ:298211  - Data de conexão anterior06/2011.
new line.CTR874110 bus1=BMT171991233.2,bus2=BMT179827391.2,Phases=1,LineCode=tieSwitch1,Length=0.001,Units=km,switch=T !numEQ NUMEQ:243605  - Data de conexão anterior06/2011.
new line.CTR874118 bus1=BMT171992001.1,bus2=BMT171992004.1,Phases=1,LineCode=tieSwitch1,Length=0.001,Units=km,switch=T !numEQ NUMEQ:248587  - Data de conexão anterior06/2011.
new line.CTR888813 bus1=BMT171993314.2,bus2=BMT171993653.2,Phases=1,LineCode=tieSwitch1,Length=0.001,Units=km,switch=T !numEQ NUMEQ:163780  - Data de conexão anterior06/2011.
new line.CTR889552 bus1=BMT171991662.2,bus2=BMT171991664.2,Phases=1,LineCode=tieSwitch1,Length=0.001,Units=km,switch=T !numEQ NUMEQ:264897  - Data de conexão anterior06/2011.
new line.CTR889714 bus1=BMT171991392.2,bus2=BMT176490652.2,Phases=1,LineCode=tieSwitch1,Length=0.001,Units=km,switch=T !numEQ NUMEQ:265881  - Data de conexão anterior06/2011.
new line.CTR904151 bus1=BMT175125781.1.2.3,bus2=BMT178852376.1.2.3,Phases=3,LineCode=tieSwitch,Length=0.001,Units=km,switch=T !numEQ NUMEQ:333882  - Data de conexão anterior06/2011.
new line.CTR915158 bus1=BMT171994235.1.2.3,bus2=BMT179021591.1.2.3,Phases=3,LineCode=tieSwitch,Length=0.001,Units=km,switch=T !numEQ NUMEQ:324776  - Data de conexão anterior06/2011.
new line.CTR932956 bus1=BMT175749370.1.2.3,bus2=BMT175749505.1.2.3,Phases=3,LineCode=tieSwitch,Length=0.001,Units=km,switch=T !numEQ NUMEQ:334318  - Data de conexão anterior06/2011.
new line.CTR933618 bus1=BMT179013879.1.2.3,bus2=BMT175873205.1.2.3,Phases=3,LineCode=tieSwitch,Length=0.001,Units=km,switch=T !numEQ NUMEQ:321072  - Data de conexão anterior06/2011.
new line.CTRR38888 bus1=BMT179004549.1.2.3,bus2=BMT179004599.1.2.3,Phases=3,LineCode=tieSwitch,Length=0.001,Units=km,switch=T !numEQ NUMEQ:292003
new line.CTRR3889 bus1=BMT171991197.2,bus2=BMT176490445.2,Phases=1,LineCode=tieSwitch1,Length=0.001,Units=km,switch=T !numEQ NUMEQ:167754  - Data de conexão anterior06/2011.
new line.CTR104773 bus1=BMT171993101.2,bus2=BMT171993104.2,Phases=1,LineCode=tieSwitch1,Length=0.001,Units=km,switch=T !numEQ NUMEQ:201184  - Data de conexão anterior06/2011.
new line.CTR134530 bus1=BMT171992397.1,bus2=BMT171992399.1,Phases=1,LineCode=tieSwitch1,Length=0.001,Units=km,switch=T !numEQ NUMEQ:138672  - Data de conexão anterior06/2011.
new line.CTR135398 bus1=BMT171992295.3,bus2=BMT175119289.3,Phases=1,LineCode=tieSwitch1,Length=0.001,Units=km,switch=T !numEQ NUMEQ:54663  - Data de conexão anterior06/2011.
new line.CTR148404 bus1=BMT171991283.2,bus2=BMT176490688.2,Phases=1,LineCode=tieSwitch1,Length=0.001,Units=km,switch=T !numEQ NUMEQ:117007  - Data de conexão anterior06/2011.
new line.CTR149587 bus1=BMT179025709.1.2.3,bus2=BMT3491170.1.2.3,Phases=3,LineCode=tieSwitch,Length=0.001,Units=km,switch=T !numEQ NUMEQ:321034  - Data de conexão anterior06/2011.
open line.CTR149587 term=1
new line.CTR19968 bus1=BMT171993466.2,bus2=BMT171993495.2,Phases=1,LineCode=tieSwitch1,Length=0.001,Units=km,switch=T !numEQ NUMEQ:136500  - Data de conexão anterior06/2011.
new line.CTR199910 bus1=BMT171992491.2,bus2=BMT171992701.2,Phases=1,LineCode=tieSwitch1,Length=0.001,Units=km,switch=T !numEQ NUMEQ:122651  - Data de conexão anterior06/2011.
new line.CTR201548 bus1=BMT171993138.3,bus2=BMT171993142.3,Phases=1,LineCode=tieSwitch1,Length=0.001,Units=km,switch=T !numEQ NUMEQ:145083  - Data de conexão anterior06/2011.
new line.CTR224067 bus1=BMT171991311.2,bus2=BMT176490536.2,Phases=1,LineCode=tieSwitch1,Length=0.001,Units=km,switch=T !numEQ NUMEQ:117004  - Data de conexão anterior06/2011.
new line.CTR224683 bus1=BMT171993325.2,bus2=BMT171993328.2,Phases=1,LineCode=tieSwitch1,Length=0.001,Units=km,switch=T !numEQ NUMEQ:55083  - Data de conexão anterior06/2011.
new line.CTR224984 bus1=BMT171992214.3,bus2=BMT171992266.3,Phases=1,LineCode=tieSwitch1,Length=0.001,Units=km,switch=T !numEQ NUMEQ:139196  - Data de conexão anterior06/2011.
new line.CTR225215 bus1=BMT171991300.2,bus2=BMT176490564.2,Phases=1,LineCode=tieSwitch1,Length=0.001,Units=km,switch=T !numEQ NUMEQ:43345  - Data de conexão anterior06/2011.
new line.CTR225978 bus1=BMT171991941.3,bus2=BMT171993693.3,Phases=1,LineCode=tieSwitch1,Length=0.001,Units=km,switch=T !numEQ NUMEQ:163935  - Data de conexão anterior06/2011.
new line.CTR225985 bus1=BMT171991948.1.2.3,bus2=BMT177878177.1.2.3,Phases=3,LineCode=tieSwitch,Length=0.001,Units=km,switch=T !numEQ NUMEQ:54287  - Data de conexão anterior06/2011.
new line.CTR225992 bus1=BMT171993227.3,bus2=BMT171993275.3,Phases=1,LineCode=tieSwitch1,Length=0.001,Units=km,switch=T !numEQ NUMEQ:43353  - Data de conexão anterior06/2011.
new line.CTR226153 bus1=BMT171992035.1.2.3,bus2=BMT175408197.1.2.3,Phases=3,LineCode=tieSwitch,Length=0.001,Units=km,switch=T !numEQ NUMEQ:55440  - Data de conexão anterior06/2011.
new line.CTR226286 bus1=BMT171992058.2,bus2=BMT178262422.2,Phases=1,LineCode=tieSwitch1,Length=0.001,Units=km,switch=T !numEQ NUMEQ:55463  - Data de conexão anterior06/2011.
new line.CTR226405 bus1=BMT171993069.3,bus2=BMT171993073.3,Phases=1,LineCode=tieSwitch1,Length=0.001,Units=km,switch=T !numEQ NUMEQ:316140  - Data de conexão anterior06/2011.
new line.CTR226552 bus1=BMT171992215.1.2.3,bus2=BMT171992220.1.2.3,Phases=3,LineCode=tieSwitch,Length=0.001,Units=km,switch=T !numEQ NUMEQ:139197  - Data de conexão anterior06/2011.
new line.CTR339317 bus1=BMT176894801.2,bus2=BMT176895291.2,Phases=1,LineCode=tieSwitch1,Length=0.001,Units=km,switch=T !numEQ NUMEQ:229060  - Data de conexão anterior06/2011.
new line.CTR342075 bus1=BMT171993484.2,bus2=BMT171993486.2,Phases=1,LineCode=tieSwitch1,Length=0.001,Units=km,switch=T !numEQ NUMEQ:285816  - Data de conexão anterior06/2011.
new line.CTR342404 bus1=BMT171993487.2,bus2=BMT171993491.2,Phases=1,LineCode=tieSwitch1,Length=0.001,Units=km,switch=T !numEQ NUMEQ:231386  - Data de conexão anterior06/2011.
new line.CTR417423 bus1=BMT171993541.2,bus2=BMT172836214.2,Phases=1,LineCode=tieSwitch1,Length=0.001,Units=km,switch=T !numEQ NUMEQ:188109  - Data de conexão anterior06/2011.
new line.CTR883373 bus1=BMT171994280.1.2.3,bus2=BMT171994284.1.2.3,Phases=3,LineCode=tieSwitch,Length=0.001,Units=km,switch=T !numEQ NUMEQ:256761  - Data de conexão anterior06/2011.
new line.CTR883374 bus1=BMT171994226.1.2.3,bus2=BMT171994228.1.2.3,Phases=3,LineCode=tieSwitch,Length=0.001,Units=km,switch=T !numEQ NUMEQ:256762  - Data de conexão anterior06/2011.
new line.CTR883883 bus1=BMT171993303.1.2.3,bus2=BMT171993655.1.2.3,Phases=3,LineCode=tieSwitch,Length=0.001,Units=km,switch=T !numEQ NUMEQ:268546  - Data de conexão anterior06/2011.
new line.CTR883885 bus1=BMT171993295.1.2.3,bus2=BMT171993296.1.2.3,Phases=3,LineCode=tieSwitch,Length=0.001,Units=km,switch=T !numEQ NUMEQ:258715  - Data de conexão anterior06/2011.
new line.CTR883886 bus1=BMT171993294.3,bus2=BMT173191775.3,Phases=1,LineCode=tieSwitch1,Length=0.001,Units=km,switch=T !numEQ NUMEQ:258711  - Data de conexão anterior06/2011.
new line.CTR898234 bus1=BMT171991949.1,bus2=BMT171993219.1,Phases=1,LineCode=tieSwitch1,Length=0.001,Units=km,switch=T !numEQ NUMEQ:270241  - Data de conexão anterior06/2011.
new line.CTR912733 bus1=BMT171994211.1.2.3,bus2=BMT171994212.1.2.3,Phases=3,LineCode=tieSwitch,Length=0.001,Units=km,switch=T !numEQ NUMEQ:270213  - Data de conexão anterior06/2011.
new line.CTR912734 bus1=BMT171994196.1.2.3,bus2=BMT171994197.1.2.3,Phases=3,LineCode=tieSwitch,Length=0.001,Units=km,switch=T !numEQ NUMEQ:270214  - Data de conexão anterior06/2011.
new line.CTRR18619 bus1=BMT171992094.1,bus2=BMT171992720.1,Phases=1,LineCode=tieSwitch1,Length=0.001,Units=km,switch=T !numEQ NUMEQ:283063
new line.CTRR2293 bus1=BMT171454788.1.2.3,bus2=BMT170437719.1.2.3,Phases=3,LineCode=tieSwitch,Length=0.001,Units=km,switch=T !numEQ NUMEQ:198822
new line.CTRR42434 bus1=BMT171993291.1.2.3,bus2=BMT173191664.1.2.3,Phases=3,LineCode=tieSwitch,Length=0.001,Units=km,switch=T !numEQ NUMEQ:274881  - Data de conexão anterior06/2011.
new line.CTRR42522 bus1=BMT171993306.1.2.3,bus2=BMT171993659.1.2.3,Phases=3,LineCode=tieSwitch,Length=0.001,Units=km,switch=T !numEQ NUMEQ:274879  - Data de conexão anterior06/2011.
new line.CTRR42808 bus1=BMT179013881.1.2.3,bus2=BMT172221655.1.2.3,Phases=3,LineCode=tieSwitch,Length=0.001,Units=km,switch=T !numEQ NUMEQ:321073
open line.CTRR42808 term=1
new line.CTRR43026 bus1=BMT172255142.1.2.3,bus2=BMT172255143.1.2.3,Phases=3,LineCode=tieSwitch,Length=0.001,Units=km,switch=T !numEQ NUMEQ:324077
new line.CTRR55723 bus1=BMT171991097.1.2.3,bus2=BMT172255147.1.2.3,Phases=3,LineCode=tieSwitch,Length=0.001,Units=km,switch=T !numEQ NUMEQ:336625  - Data de conexão anterior06/2011.
