2024_89_CemigReconfigurationCases/1_AlimsCemig/LFAD204/LFAD204Transformadores.dss
new transformer.TRF_1002427A Phases=1,Windings=3,Buses=[BMT171991516.1 BBT97705164.1.0 BBT97705164.0.2],Conns=[wye wye wye],kvs=[7.967 0.12 0.12],kvas=[5.000000000 5.000000000 5.000000000],Taps=[1,1.000000000,1.000000000],XHL=1.360000000,XHT=1.360000000,XLT=1.088000000,%loadloss=2.100000000,%noloadloss=0.700000000
new transformer.TRF_1017771 Phases=3,Windings=2,Buses=[BMT171994231.1.2.3 BBT107981626.1.2.3.0],Conns=[delta wye],kvs=[13.800000000 0.22],kvas=[30.000000000 30.000000000],Taps=[1,1.000000000],XHL=3.560000000,%loadloss=1.820000000,%noloadloss=0.500000000
new transformer.TRF_1018905A Phases=1,Windings=3,Buses=[BMT179273138.2 BBT92011434.1.0 BBT92011434.0.2],Conns=[wye wye wye],kvs=[7.967 0.12 0.12],kvas=[5.000000000 5.000000000 5.000000000],Taps=[1,1.000000000,1.000000000],XHL=1.360000000,XHT=1.360000000,XLT=1.088000000,%loadloss=2.100000000,%noloadloss=0.700000000
new transformer.TRF_1072903 Phases=3,Windings=2,Buses=[BMT171991661.1.2.3 BBT134058110.1.2.3.0],Conns=[delta wye],kvs=[13.800000000 0.22],kvas=[45.000000000 45.000000000],Taps=[1,1.000000000],XHL=3.640000000,%loadloss=1.670000000,%noloadloss=0.433000000
new transformer.TRF_1072959A Phases=1,Windings=3,Buses=[BMT173856319.1 BBT134068666.1.0 BBT134068666.0.2],Conns=[wye wye wye],kvs=[7.967 0.12 0.12],kvas=[35.000000000 35.000000000 35.000000000],Taps=[1,1.000000000,1.000000000],XHL=2.060000000,XHT=2.060000000,XLT=1.648000000,%loadloss=1.410000000,%noloadloss=0.385000000
new transformer.TRF_1072994 Phases=3,Windings=2,Buses=[BMT171991792.1.2.3 BBT134076912.1.2.3.0],Conns=[delta wye],kvs=[13.800000000 0.22],kvas=[75.000000000 75.000000000],Taps=[1,1.000000000],XHL=3.720000000,%loadloss=1.470000000,%noloadloss=0.393000000
new transformer.TRF_1073029 Phases=3,Windings=2,Buses=[BMT171991793.1.2.3 BBT134079187.1.2.3.0],Conns=[delta wye],kvs=[13.800000000 0.22],kvas=[45.000000000 45.000000000],Taps=[1,1.000000000],XHL=3.640000000,%loadloss=1.670000000,%noloadloss=0.433000000
new transformer.TRF_1073043 Phases=3,Windings=2,Buses=[BMT178852379.1.2.3 BBT134083555.1.2.3.0],Conns=[delta wye],kvs=[13.800000000 0.22],kvas=[45.000000000 45.000000000],Taps=[1,1.000000000],XHL=3.640000000,%loadloss=1.670000000,%noloadloss=0.433000000
new transformer.TRF_1073085 Phases=3,Windings=2,Buses=[BMT171991748.1.2.3 BBT134088000.1.2.3.0],Conns=[delta wye],kvs=[13.800000000 0.22],kvas=[45.000000000 45.000000000],Taps=[1,1.000000000],XHL=3.640000000,%loadloss=1.670000000,%noloadloss=0.433000000
new transformer.TRF_1073099 Phases=3,Windings=2,Buses=[BMT171991749.1.2.3 BBT134089071.1.2.3.0],Conns=[delta wye],kvs=[13.800000000 0.22],kvas=[75.000000000 75.000000000],Taps=[1,1.000000000],XHL=3.720000000,%loadloss=1.470000000,%noloadloss=0.393000000
new transformer.TRF_1073106 Phases=3,Windings=2,Buses=[BMT171991751.1.2.3 BBT134091241.1.2.3.0],Conns=[delta wye],kvs=[13.800000000 0.22],kvas=[45.000000000 45.000000000],Taps=[1,1.000000000],XHL=3.640000000,%loadloss=1.670000000,%noloadloss=0.433000000
new transformer.TRF_1073120 Phases=3,Windings=2,Buses=[BMT171991750.1.2.3 BBT134092081.1.2.3.0],Conns=[delta wye],kvs=[13.800000000 0.22],kvas=[75.000000000 75.000000000],Taps=[1,1.000000000],XHL=3.720000000,%loadloss=1.470000000,%noloadloss=0.393000000
new transformer.TRF_1073134 Phases=3,Windings=2,Buses=[BMT172255150.1.2.3 BBT134093873.1.2.3.0],Conns=[delta wye],kvs=[13.800000000 0.22],kvas=[75.000000000 75.000000000],Taps=[1,1.000000000],XHL=3.720000000,%loadloss=1.470000000,%noloadloss=0.393000000
new transformer.TRF_1089227 Phases=3,Windings=2,Buses=[BMT171991786.1.2.3 BBT138656641.1.2.3.0],Conns=[delta wye],kvs=[13.800000000 0.22],kvas=[45.000000000 45.000000000],Taps=[1,1.000000000],XHL=3.640000000,%loadloss=1.670000000,%noloadloss=0.433000000
new transformer.TRF_1089290 Phases=3,Windings=2,Buses=[BMT171991783.1.2.3 BBT138676500.1.2.3.0],Conns=[delta wye],kvs=[13.800000000 0.22],kvas=[45.000000000 45.000000000],Taps=[1,1.000000000],XHL=3.640000000,%loadloss=1.670000000,%noloadloss=0.433000000
new transformer.TRF_1089297 Phases=3,Windings=2,Buses=[BMT171991780.1.2.3 BBT138677648.1.2.3.0],Conns=[delta wye],kvs=[13.800000000 0.22],kvas=[30.000000000 30.000000000],Taps=[1,1.000000000],XHL=3.560000000,%loadloss=1.820000000,%noloadloss=0.500000000
new transformer.TRF_1394011 Phases=3,Windings=2,Buses=[BMT171992051.1.2.3 BBT148971876.1.2.3.0],Conns=[delta wye],kvs=[13.800000000 0.22],kvas=[75.000000000 75.000000000],Taps=[1,1.000000000],XHL=3.720000000,%loadloss=1.470000000,%noloadloss=0.393000000
new transformer.TRF_1415808A Phases=1,Windings=3,Buses=[BMT177871379.1 BBT154113709.1.0 BBT154113709.0.2],Conns=[wye wye wye],kvs=[7.967 0.12 0.12],kvas=[10.000000000 10.000000000 10.000000000],Taps=[1,1.000000000,1.000000000],XHL=1.560000000,XHT=1.560000000,XLT=1.248000000,%loadloss=1.950000000,%noloadloss=0.500000000
...